
OS:Version,
  {fe788960-298d-46e2-a062-e455ee748927}, !- Handle
  2.9.1;                                  !- Version Identifier

OS:Building,
  {652488dd-6644-4ba1-a72d-62928d4de71c}, !- Handle
  90.1-2013-LargeOffice-ASHRAE 169-2006-5A PRM baseline created: 2020-03-24 13:02:15 -0600, !- Name
  ,                                       !- Building Sector Type
  ,                                       !- North Axis {deg}
  ,                                       !- Nominal Floor to Floor Height {m}
  ,                                       !- Space Type Name
  ,                                       !- Default Construction Set Name
  ;                                       !- Default Schedule Set Name

OS:Sizing:Parameters,
  {14c0bfae-565e-41a6-b941-3a2a34267f33}, !- Handle
  1.25,                                   !- Heating Sizing Factor
  1.15;                                   !- Cooling Sizing Factor

OS:SimulationControl,
  {c4abe0aa-5afe-4911-864c-52dc7d502638}, !- Handle
  ,                                       !- Do Zone Sizing Calculation
  ,                                       !- Do System Sizing Calculation
  ,                                       !- Do Plant Sizing Calculation
  No,                                     !- Run Simulation for Sizing Periods
  Yes;                                    !- Run Simulation for Weather File Run Periods

OS:WeatherFile,
  {363db4c3-21da-4bb7-a0f9-da7237df4dd9}, !- Handle
  Denver Intl Ap,                         !- City
  CO,                                     !- State Province Region
  USA,                                    !- Country
  TMY3,                                   !- Data Source
  725650,                                 !- WMO Number
  39.83,                                  !- Latitude {deg}
  -104.65,                                !- Longitude {deg}
  -7,                                     !- Time Zone {hr}
  1650,                                   !- Elevation {m}
  file:///Users/sam/superstudio/test/data/USA_CO_Denver.Intl.AP.725650_TMY3.epw, !- Url
  E23378AA;                               !- Checksum

OS:Site,
  {e4e0a6b0-4bc2-4a54-bced-be50528ce84e}, !- Handle
  Denver Intl Ap_CO_USA,                  !- Name
  39.83,                                  !- Latitude {deg}
  -104.65,                                !- Longitude {deg}
  -7,                                     !- Time Zone {hr}
  1650,                                   !- Elevation {m}
  ;                                       !- Terrain

OS:SizingPeriod:DesignDay,
  {112a4f86-2c63-461f-b75a-a1453d67636f}, !- Handle
  Denver Intl Ap Ann Clg .4% Condns DB=>MWB, !- Name
  34.6,                                   !- Maximum Dry-Bulb Temperature {C}
  15.2,                                   !- Daily Dry-Bulb Temperature Range {deltaC}
  15.7,                                   !- Humidity Indicating Conditions at Maximum Dry-Bulb
  83011,                                  !- Barometric Pressure {Pa}
  4.2,                                    !- Wind Speed {m/s}
  80,                                     !- Wind Direction {deg}
  0,                                      !- Sky Clearness
  0,                                      !- Rain Indicator
  0,                                      !- Snow Indicator
  21,                                     !- Day of Month
  7,                                      !- Month
  SummerDesignDay,                        !- Day Type
  0,                                      !- Daylight Saving Time Indicator
  Wetbulb,                                !- Humidity Indicating Type
  ,                                       !- Humidity Indicating Day Schedule Name
  DefaultMultipliers,                     !- Dry-Bulb Temperature Range Modifier Type
  ,                                       !- Dry-Bulb Temperature Range Modifier Schedule Name
  ASHRAETau,                              !- Solar Model Indicator
  ,                                       !- Beam Solar Day Schedule Name
  ,                                       !- Diffuse Solar Day Schedule Name
  0.424,                                  !- ASHRAE Taub {dimensionless}
  2.012;                                  !- ASHRAE Taud {dimensionless}

OS:SizingPeriod:DesignDay,
  {7d9e64ae-ee3c-43c3-a82b-c00376f6c9cd}, !- Handle
  Denver Intl Ap Ann Htg 99.6% Condns DB, !- Name
  -17.4,                                  !- Maximum Dry-Bulb Temperature {C}
  0,                                      !- Daily Dry-Bulb Temperature Range {deltaC}
  -17.4,                                  !- Humidity Indicating Conditions at Maximum Dry-Bulb
  83011,                                  !- Barometric Pressure {Pa}
  3.3,                                    !- Wind Speed {m/s}
  160,                                    !- Wind Direction {deg}
  0,                                      !- Sky Clearness
  0,                                      !- Rain Indicator
  0,                                      !- Snow Indicator
  21,                                     !- Day of Month
  12,                                     !- Month
  WinterDesignDay,                        !- Day Type
  0,                                      !- Daylight Saving Time Indicator
  Wetbulb,                                !- Humidity Indicating Type
  ,                                       !- Humidity Indicating Day Schedule Name
  DefaultMultipliers,                     !- Dry-Bulb Temperature Range Modifier Type
  ,                                       !- Dry-Bulb Temperature Range Modifier Schedule Name
  ASHRAEClearSky;                         !- Solar Model Indicator

OS:Space,
  {1c825d27-eb5c-4ecf-922d-9d6ded4a1a1a}, !- Handle
  Retail,                                 !- Name
  {be39176f-3bef-4908-a86d-9a46de18f288}, !- Space Type Name
  {e094b04e-1fe1-4a4b-84e7-f88dbfee3843}, !- Default Construction Set Name
  ,                                       !- Default Schedule Set Name
  ,                                       !- Direction of Relative North {deg}
  ,                                       !- X Origin {m}
  ,                                       !- Y Origin {m}
  ,                                       !- Z Origin {m}
  {2d2f94bb-6ded-4b9a-b95b-798475f38c45}, !- Building Story Name
  ,                                       !- Thermal Zone Name
  ,                                       !- Part of Total Floor Area
  ,                                       !- Design Specification Outdoor Air Object Name
  ;                                       !- Building Unit Name

OS:Surface,
  {ee5ddb6a-1f8e-4e70-9b03-b220d496364e}, !- Handle
  Face 13,                                !- Name
  Floor,                                  !- Surface Type
  ,                                       !- Construction Name
  {1c825d27-eb5c-4ecf-922d-9d6ded4a1a1a}, !- Space Name
  Ground,                                 !- Outside Boundary Condition
  ,                                       !- Outside Boundary Condition Object
  NoSun,                                  !- Sun Exposure
  NoWind,                                 !- Wind Exposure
  ,                                       !- View Factor to Ground
  ,                                       !- Number of Vertices
  -9.144, 10.668, 0,                      !- X,Y,Z Vertex 1 {m}
  -9.144, -27.432, 0,                     !- X,Y,Z Vertex 2 {m}
  -59.436, -27.432, 0,                    !- X,Y,Z Vertex 3 {m}
  -59.436, 10.668, 0;                     !- X,Y,Z Vertex 4 {m}

OS:Surface,
  {02c8a756-3951-424d-8814-4bbe3607b451}, !- Handle
  Face 14,                                !- Name
  RoofCeiling,                            !- Surface Type
  ,                                       !- Construction Name
  {1c825d27-eb5c-4ecf-922d-9d6ded4a1a1a}, !- Space Name
  Outdoors,                               !- Outside Boundary Condition
  ,                                       !- Outside Boundary Condition Object
  SunExposed,                             !- Sun Exposure
  WindExposed,                            !- Wind Exposure
  ,                                       !- View Factor to Ground
  ,                                       !- Number of Vertices
  -59.436, 10.668, 2.4384,                !- X,Y,Z Vertex 1 {m}
  -59.436, -27.432, 2.4384,               !- X,Y,Z Vertex 2 {m}
  -9.144, -27.432, 2.4384,                !- X,Y,Z Vertex 3 {m}
  -9.144, 10.668, 2.4384;                 !- X,Y,Z Vertex 4 {m}

OS:Surface,
  {d02d7c71-6c2f-426e-8e13-b095e79a7443}, !- Handle
  Face 15,                                !- Name
  Wall,                                   !- Surface Type
  ,                                       !- Construction Name
  {1c825d27-eb5c-4ecf-922d-9d6ded4a1a1a}, !- Space Name
  Surface,                                !- Outside Boundary Condition
  {5c945105-d0d3-423b-81ab-e0d4cffa8ceb}, !- Outside Boundary Condition Object
  NoSun,                                  !- Sun Exposure
  NoWind,                                 !- Wind Exposure
  ,                                       !- View Factor to Ground
  ,                                       !- Number of Vertices
  -9.144, 10.668, 2.4384,                 !- X,Y,Z Vertex 1 {m}
  -9.144, -27.432, 2.4384,                !- X,Y,Z Vertex 2 {m}
  -9.144, -27.432, 0,                     !- X,Y,Z Vertex 3 {m}
  -9.144, 10.668, 0;                      !- X,Y,Z Vertex 4 {m}

OS:Surface,
  {84cc3667-4c24-4a80-90dd-163c55f017bf}, !- Handle
  Face 16,                                !- Name
  Wall,                                   !- Surface Type
  ,                                       !- Construction Name
  {1c825d27-eb5c-4ecf-922d-9d6ded4a1a1a}, !- Space Name
  Outdoors,                               !- Outside Boundary Condition
  ,                                       !- Outside Boundary Condition Object
  SunExposed,                             !- Sun Exposure
  WindExposed,                            !- Wind Exposure
  ,                                       !- View Factor to Ground
  ,                                       !- Number of Vertices
  -9.144, -27.432, 2.4384,                !- X,Y,Z Vertex 1 {m}
  -59.436, -27.432, 2.4384,               !- X,Y,Z Vertex 2 {m}
  -59.436, -27.432, 0,                    !- X,Y,Z Vertex 3 {m}
  -9.144, -27.432, 0;                     !- X,Y,Z Vertex 4 {m}

OS:Surface,
  {694b4045-ae13-44d7-94e7-8cfa508559b9}, !- Handle
  Face 17,                                !- Name
  Wall,                                   !- Surface Type
  ,                                       !- Construction Name
  {1c825d27-eb5c-4ecf-922d-9d6ded4a1a1a}, !- Space Name
  Outdoors,                               !- Outside Boundary Condition
  ,                                       !- Outside Boundary Condition Object
  SunExposed,                             !- Sun Exposure
  WindExposed,                            !- Wind Exposure
  ,                                       !- View Factor to Ground
  ,                                       !- Number of Vertices
  -59.436, -27.432, 2.4384,               !- X,Y,Z Vertex 1 {m}
  -59.436, 10.668, 2.4384,                !- X,Y,Z Vertex 2 {m}
  -59.436, 10.668, 0,                     !- X,Y,Z Vertex 3 {m}
  -59.436, -27.432, 0;                    !- X,Y,Z Vertex 4 {m}

OS:Surface,
  {1896a1aa-2bf7-4dde-a3d5-4dbee42567ad}, !- Handle
  Face 18,                                !- Name
  Wall,                                   !- Surface Type
  ,                                       !- Construction Name
  {1c825d27-eb5c-4ecf-922d-9d6ded4a1a1a}, !- Space Name
  Surface,                                !- Outside Boundary Condition
  {4184f670-2254-46b0-aa0c-382b1274c7a2}, !- Outside Boundary Condition Object
  NoSun,                                  !- Sun Exposure
  NoWind,                                 !- Wind Exposure
  ,                                       !- View Factor to Ground
  ,                                       !- Number of Vertices
  -59.436, 10.668, 2.4384,                !- X,Y,Z Vertex 1 {m}
  -9.144, 10.668, 2.4384,                 !- X,Y,Z Vertex 2 {m}
  -9.144, 10.668, 0,                      !- X,Y,Z Vertex 3 {m}
  -59.436, 10.668, 0;                     !- X,Y,Z Vertex 4 {m}

OS:SpaceType,
  {be39176f-3bef-4908-a86d-9a46de18f288}, !- Handle
  90.1-2004 - LargeHotel - Retail,        !- Name
  ,                                       !- Default Construction Set Name
  {c3cefed7-b006-46e7-8128-3e9a603eda38}, !- Default Schedule Set Name
  {199bc5b9-8a8d-43c4-8f92-76ab28efcf70}, !- Group Rendering Name
  {9fa08c32-b310-4a7f-8c86-688ce5778cd0}, !- Design Specification Outdoor Air Object Name
  90.1-2004,                              !- Standards Template
  LargeHotel,                             !- Standards Building Type
  Retail;                                 !- Standards Space Type

OS:Rendering:Color,
  {199bc5b9-8a8d-43c4-8f92-76ab28efcf70}, !- Handle
  Rendering Color 1,                      !- Name
  67,                                     !- Rendering Red Value
  215,                                    !- Rendering Green Value
  91;                                     !- Rendering Blue Value

OS:BuildingStory,
  {2d2f94bb-6ded-4b9a-b95b-798475f38c45}, !- Handle
  Story 1,                                !- Name
  0,                                      !- Nominal Z Coordinate {m}
  2.4384,                                 !- Nominal Floor to Floor Height {m}
  ,                                       !- Default Construction Set Name
  ,                                       !- Default Schedule Set Name
  {f1d80183-25fc-4b29-8771-3bbd436f1a21}, !- Group Rendering Name
  2.4384;                                 !- Nominal Floor to Ceiling Height {m}

OS:Rendering:Color,
  {f1d80183-25fc-4b29-8771-3bbd436f1a21}, !- Handle
  Rendering Color 2,                      !- Name
  136,                                    !- Rendering Red Value
  204,                                    !- Rendering Green Value
  238;                                    !- Rendering Blue Value

OS:DefaultConstructionSet,
  {e094b04e-1fe1-4a4b-84e7-f88dbfee3843}, !- Handle
  90.1-2004 - LargeHotel,                 !- Name
  ,                                       !- Default Exterior Surface Constructions Name
  ,                                       !- Default Interior Surface Constructions Name
  ,                                       !- Default Ground Contact Surface Constructions Name
  ,                                       !- Default Exterior SubSurface Constructions Name
  ,                                       !- Default Interior SubSurface Constructions Name
  ,                                       !- Interior Partition Construction Name
  ,                                       !- Space Shading Construction Name
  ,                                       !- Building Shading Construction Name
  ,                                       !- Site Shading Construction Name
  ;                                       !- Adiabatic Surface Construction Name

OS:Space,
  {b4a61a8b-b137-4068-bf06-9ea996b673b4}, !- Handle
  Lobby,                                  !- Name
  {b3a86f35-a220-4130-9e5a-74ada7fa7e77}, !- Space Type Name
  {e094b04e-1fe1-4a4b-84e7-f88dbfee3843}, !- Default Construction Set Name
  ,                                       !- Default Schedule Set Name
  ,                                       !- Direction of Relative North {deg}
  ,                                       !- X Origin {m}
  ,                                       !- Y Origin {m}
  ,                                       !- Z Origin {m}
  {2d2f94bb-6ded-4b9a-b95b-798475f38c45}, !- Building Story Name
  ,                                       !- Thermal Zone Name
  ,                                       !- Part of Total Floor Area
  ,                                       !- Design Specification Outdoor Air Object Name
  ;                                       !- Building Unit Name

OS:Surface,
  {250c32d6-eb43-46b8-b717-79f2a995e9d2}, !- Handle
  Face 0,                                 !- Name
  Floor,                                  !- Surface Type
  ,                                       !- Construction Name
  {b4a61a8b-b137-4068-bf06-9ea996b673b4}, !- Space Name
  Ground,                                 !- Outside Boundary Condition
  ,                                       !- Outside Boundary Condition Object
  NoSun,                                  !- Sun Exposure
  NoWind,                                 !- Wind Exposure
  ,                                       !- View Factor to Ground
  ,                                       !- Number of Vertices
  33.528, 36.576, 0,                      !- X,Y,Z Vertex 1 {m}
  33.528, 10.668, 0,                      !- X,Y,Z Vertex 2 {m}
  -9.144, 10.668, 0,                      !- X,Y,Z Vertex 3 {m}
  -59.436, 10.668, 0,                     !- X,Y,Z Vertex 4 {m}
  -59.436, 36.576, 0;                     !- X,Y,Z Vertex 5 {m}

OS:Surface,
  {0aa12893-2b23-4675-9c1d-5a5721a71316}, !- Handle
  Face 1,                                 !- Name
  RoofCeiling,                            !- Surface Type
  ,                                       !- Construction Name
  {b4a61a8b-b137-4068-bf06-9ea996b673b4}, !- Space Name
  Outdoors,                               !- Outside Boundary Condition
  ,                                       !- Outside Boundary Condition Object
  SunExposed,                             !- Sun Exposure
  WindExposed,                            !- Wind Exposure
  ,                                       !- View Factor to Ground
  ,                                       !- Number of Vertices
  -59.436, 36.576, 2.4384,                !- X,Y,Z Vertex 1 {m}
  -59.436, 10.668, 2.4384,                !- X,Y,Z Vertex 2 {m}
  -9.144, 10.668, 2.4384,                 !- X,Y,Z Vertex 3 {m}
  33.528, 10.668, 2.4384,                 !- X,Y,Z Vertex 4 {m}
  33.528, 36.576, 2.4384;                 !- X,Y,Z Vertex 5 {m}

OS:Surface,
  {75f1616f-bda9-40db-9c61-9ba94cecb8ac}, !- Handle
  Face 2,                                 !- Name
  Wall,                                   !- Surface Type
  ,                                       !- Construction Name
  {b4a61a8b-b137-4068-bf06-9ea996b673b4}, !- Space Name
  Outdoors,                               !- Outside Boundary Condition
  ,                                       !- Outside Boundary Condition Object
  SunExposed,                             !- Sun Exposure
  WindExposed,                            !- Wind Exposure
  ,                                       !- View Factor to Ground
  ,                                       !- Number of Vertices
  33.528, 36.576, 2.4384,                 !- X,Y,Z Vertex 1 {m}
  33.528, 10.668, 2.4384,                 !- X,Y,Z Vertex 2 {m}
  33.528, 10.668, 0,                      !- X,Y,Z Vertex 3 {m}
  33.528, 36.576, 0;                      !- X,Y,Z Vertex 4 {m}

OS:Surface,
  {cf3b13da-13e7-4f55-8976-31c74643b7ef}, !- Handle
  Face 3,                                 !- Name
  Wall,                                   !- Surface Type
  ,                                       !- Construction Name
  {b4a61a8b-b137-4068-bf06-9ea996b673b4}, !- Space Name
  Surface,                                !- Outside Boundary Condition
  {5792862e-de12-4274-a43b-c2e449f628aa}, !- Outside Boundary Condition Object
  NoSun,                                  !- Sun Exposure
  NoWind,                                 !- Wind Exposure
  ,                                       !- View Factor to Ground
  ,                                       !- Number of Vertices
  33.528, 10.668, 2.4384,                 !- X,Y,Z Vertex 1 {m}
  -9.144, 10.668, 2.4384,                 !- X,Y,Z Vertex 2 {m}
  -9.144, 10.668, 0,                      !- X,Y,Z Vertex 3 {m}
  33.528, 10.668, 0;                      !- X,Y,Z Vertex 4 {m}

OS:Surface,
  {4184f670-2254-46b0-aa0c-382b1274c7a2}, !- Handle
  Face 4,                                 !- Name
  Wall,                                   !- Surface Type
  ,                                       !- Construction Name
  {b4a61a8b-b137-4068-bf06-9ea996b673b4}, !- Space Name
  Surface,                                !- Outside Boundary Condition
  {1896a1aa-2bf7-4dde-a3d5-4dbee42567ad}, !- Outside Boundary Condition Object
  NoSun,                                  !- Sun Exposure
  NoWind,                                 !- Wind Exposure
  ,                                       !- View Factor to Ground
  ,                                       !- Number of Vertices
  -9.144, 10.668, 2.4384,                 !- X,Y,Z Vertex 1 {m}
  -59.436, 10.668, 2.4384,                !- X,Y,Z Vertex 2 {m}
  -59.436, 10.668, 0,                     !- X,Y,Z Vertex 3 {m}
  -9.144, 10.668, 0;                      !- X,Y,Z Vertex 4 {m}

OS:Surface,
  {0cc83076-2f97-4f2d-836b-3c8bdf2ce17e}, !- Handle
  Face 5,                                 !- Name
  Wall,                                   !- Surface Type
  ,                                       !- Construction Name
  {b4a61a8b-b137-4068-bf06-9ea996b673b4}, !- Space Name
  Outdoors,                               !- Outside Boundary Condition
  ,                                       !- Outside Boundary Condition Object
  SunExposed,                             !- Sun Exposure
  WindExposed,                            !- Wind Exposure
  ,                                       !- View Factor to Ground
  ,                                       !- Number of Vertices
  -59.436, 10.668, 2.4384,                !- X,Y,Z Vertex 1 {m}
  -59.436, 36.576, 2.4384,                !- X,Y,Z Vertex 2 {m}
  -59.436, 36.576, 0,                     !- X,Y,Z Vertex 3 {m}
  -59.436, 10.668, 0;                     !- X,Y,Z Vertex 4 {m}

OS:Surface,
  {c4407db2-416d-4534-b903-0b58a5b87fe8}, !- Handle
  Face 6,                                 !- Name
  Wall,                                   !- Surface Type
  ,                                       !- Construction Name
  {b4a61a8b-b137-4068-bf06-9ea996b673b4}, !- Space Name
  Outdoors,                               !- Outside Boundary Condition
  ,                                       !- Outside Boundary Condition Object
  SunExposed,                             !- Sun Exposure
  WindExposed,                            !- Wind Exposure
  ,                                       !- View Factor to Ground
  ,                                       !- Number of Vertices
  -59.436, 36.576, 2.4384,                !- X,Y,Z Vertex 1 {m}
  33.528, 36.576, 2.4384,                 !- X,Y,Z Vertex 2 {m}
  33.528, 36.576, 0,                      !- X,Y,Z Vertex 3 {m}
  -59.436, 36.576, 0;                     !- X,Y,Z Vertex 4 {m}

OS:SpaceType,
  {b3a86f35-a220-4130-9e5a-74ada7fa7e77}, !- Handle
  90.1-2004 - LargeHotel - Lobby,         !- Name
  ,                                       !- Default Construction Set Name
  {5fc7b48b-64cf-4817-a2d4-f7359614a7d7}, !- Default Schedule Set Name
  {cae0e5bf-58e3-41ef-b261-28691a4bd893}, !- Group Rendering Name
  {bcb841b0-8084-4b0d-ad1f-a458681aa78e}, !- Design Specification Outdoor Air Object Name
  90.1-2004,                              !- Standards Template
  LargeHotel,                             !- Standards Building Type
  Lobby;                                  !- Standards Space Type

OS:Rendering:Color,
  {cae0e5bf-58e3-41ef-b261-28691a4bd893}, !- Handle
  Rendering Color 3,                      !- Name
  87,                                     !- Rendering Red Value
  42,                                     !- Rendering Green Value
  111;                                    !- Rendering Blue Value

OS:Space,
  {d59d6512-0838-4ad0-9490-e06baa295f8c}, !- Handle
  Guest Room,                             !- Name
  {bb424a14-73cd-4601-b4b6-454d6693b1e7}, !- Space Type Name
  {e094b04e-1fe1-4a4b-84e7-f88dbfee3843}, !- Default Construction Set Name
  ,                                       !- Default Schedule Set Name
  ,                                       !- Direction of Relative North {deg}
  ,                                       !- X Origin {m}
  ,                                       !- Y Origin {m}
  ,                                       !- Z Origin {m}
  {2d2f94bb-6ded-4b9a-b95b-798475f38c45}, !- Building Story Name
  ,                                       !- Thermal Zone Name
  ,                                       !- Part of Total Floor Area
  ,                                       !- Design Specification Outdoor Air Object Name
  ;                                       !- Building Unit Name

OS:Surface,
  {91b06b03-c5e1-4285-8f8d-3700676284e6}, !- Handle
  Face 7,                                 !- Name
  Floor,                                  !- Surface Type
  ,                                       !- Construction Name
  {d59d6512-0838-4ad0-9490-e06baa295f8c}, !- Space Name
  Ground,                                 !- Outside Boundary Condition
  ,                                       !- Outside Boundary Condition Object
  NoSun,                                  !- Sun Exposure
  NoWind,                                 !- Wind Exposure
  ,                                       !- View Factor to Ground
  ,                                       !- Number of Vertices
  -9.144, -27.432, 0,                     !- X,Y,Z Vertex 1 {m}
  -9.144, 10.668, 0,                      !- X,Y,Z Vertex 2 {m}
  33.528, 10.668, 0,                      !- X,Y,Z Vertex 3 {m}
  33.528, -27.432, 0;                     !- X,Y,Z Vertex 4 {m}

OS:Surface,
  {3343b212-2742-435b-a4ab-1e2fe73c2d77}, !- Handle
  Face 8,                                 !- Name
  RoofCeiling,                            !- Surface Type
  ,                                       !- Construction Name
  {d59d6512-0838-4ad0-9490-e06baa295f8c}, !- Space Name
  Outdoors,                               !- Outside Boundary Condition
  ,                                       !- Outside Boundary Condition Object
  SunExposed,                             !- Sun Exposure
  WindExposed,                            !- Wind Exposure
  ,                                       !- View Factor to Ground
  ,                                       !- Number of Vertices
  33.528, -27.432, 2.4384,                !- X,Y,Z Vertex 1 {m}
  33.528, 10.668, 2.4384,                 !- X,Y,Z Vertex 2 {m}
  -9.144, 10.668, 2.4384,                 !- X,Y,Z Vertex 3 {m}
  -9.144, -27.432, 2.4384;                !- X,Y,Z Vertex 4 {m}

OS:Surface,
  {5c945105-d0d3-423b-81ab-e0d4cffa8ceb}, !- Handle
  Face 9,                                 !- Name
  Wall,                                   !- Surface Type
  ,                                       !- Construction Name
  {d59d6512-0838-4ad0-9490-e06baa295f8c}, !- Space Name
  Surface,                                !- Outside Boundary Condition
  {d02d7c71-6c2f-426e-8e13-b095e79a7443}, !- Outside Boundary Condition Object
  NoSun,                                  !- Sun Exposure
  NoWind,                                 !- Wind Exposure
  ,                                       !- View Factor to Ground
  ,                                       !- Number of Vertices
  -9.144, -27.432, 2.4384,                !- X,Y,Z Vertex 1 {m}
  -9.144, 10.668, 2.4384,                 !- X,Y,Z Vertex 2 {m}
  -9.144, 10.668, 0,                      !- X,Y,Z Vertex 3 {m}
  -9.144, -27.432, 0;                     !- X,Y,Z Vertex 4 {m}

OS:Surface,
  {5792862e-de12-4274-a43b-c2e449f628aa}, !- Handle
  Face 10,                                !- Name
  Wall,                                   !- Surface Type
  ,                                       !- Construction Name
  {d59d6512-0838-4ad0-9490-e06baa295f8c}, !- Space Name
  Surface,                                !- Outside Boundary Condition
  {cf3b13da-13e7-4f55-8976-31c74643b7ef}, !- Outside Boundary Condition Object
  NoSun,                                  !- Sun Exposure
  NoWind,                                 !- Wind Exposure
  ,                                       !- View Factor to Ground
  ,                                       !- Number of Vertices
  -9.144, 10.668, 2.4384,                 !- X,Y,Z Vertex 1 {m}
  33.528, 10.668, 2.4384,                 !- X,Y,Z Vertex 2 {m}
  33.528, 10.668, 0,                      !- X,Y,Z Vertex 3 {m}
  -9.144, 10.668, 0;                      !- X,Y,Z Vertex 4 {m}

OS:Surface,
  {32e20683-0c3c-4a23-8dee-0cf2d620e97c}, !- Handle
  Face 11,                                !- Name
  Wall,                                   !- Surface Type
  ,                                       !- Construction Name
  {d59d6512-0838-4ad0-9490-e06baa295f8c}, !- Space Name
  Outdoors,                               !- Outside Boundary Condition
  ,                                       !- Outside Boundary Condition Object
  SunExposed,                             !- Sun Exposure
  WindExposed,                            !- Wind Exposure
  ,                                       !- View Factor to Ground
  ,                                       !- Number of Vertices
  33.528, 10.668, 2.4384,                 !- X,Y,Z Vertex 1 {m}
  33.528, -27.432, 2.4384,                !- X,Y,Z Vertex 2 {m}
  33.528, -27.432, 0,                     !- X,Y,Z Vertex 3 {m}
  33.528, 10.668, 0;                      !- X,Y,Z Vertex 4 {m}

OS:Surface,
  {156a865d-48b7-4b97-bf9f-c66c74742240}, !- Handle
  Face 12,                                !- Name
  Wall,                                   !- Surface Type
  ,                                       !- Construction Name
  {d59d6512-0838-4ad0-9490-e06baa295f8c}, !- Space Name
  Outdoors,                               !- Outside Boundary Condition
  ,                                       !- Outside Boundary Condition Object
  SunExposed,                             !- Sun Exposure
  WindExposed,                            !- Wind Exposure
  ,                                       !- View Factor to Ground