
OS:Version,
  {4ef4e400-fabb-48e6-9885-eaed2625e822}, !- Handle
  2.9.1;                                  !- Version Identifier

OS:Building,
  {fb682500-75ef-4c84-ac29-14e2b909f12b}, !- Handle
  90.1-2013-LargeOffice-ASHRAE 169-2006-5A PRM baseline created: 2019-12-28 16:59:52 -0600, !- Name
  ,                                       !- Building Sector Type
  ,                                       !- North Axis {deg}
  ,                                       !- Nominal Floor to Floor Height {m}
  ,                                       !- Space Type Name
  ,                                       !- Default Construction Set Name
  ;                                       !- Default Schedule Set Name

OS:Sizing:Parameters,
  {8daf09fd-e5fe-4af6-bf16-5b599faca046}, !- Handle
  1.25,                                   !- Heating Sizing Factor
  1.15;                                   !- Cooling Sizing Factor

OS:SimulationControl,
  {6099d7fa-fd17-4050-9f5e-f7311f94fd0d}, !- Handle
  ,                                       !- Do Zone Sizing Calculation
  ,                                       !- Do System Sizing Calculation
  ,                                       !- Do Plant Sizing Calculation
  No,                                     !- Run Simulation for Sizing Periods
  Yes;                                    !- Run Simulation for Weather File Run Periods

OS:WeatherFile,
  {05a8dfde-0fc0-4c6c-8d68-793da66d6a3d}, !- Handle
  Denver Intl Ap,                         !- City
  CO,                                     !- State Province Region
  USA,                                    !- Country
  TMY3,                                   !- Data Source
  725650,                                 !- WMO Number
  39.83,                                  !- Latitude {deg}
  -104.65,                                !- Longitude {deg}
  -7,                                     !- Time Zone {hr}
  1650,                                   !- Elevation {m}
  file:///Users/sam/superstudio/test/data/USA_CO_Denver.Intl.AP.725650_TMY3.epw, !- Url
  E23378AA;                               !- Checksum

OS:Site,
  {001d4ca3-12a9-4e8d-94a8-c9a047f434b1}, !- Handle
  Denver Intl Ap_CO_USA,                  !- Name
  39.83,                                  !- Latitude {deg}
  -104.65,                                !- Longitude {deg}
  -7,                                     !- Time Zone {hr}
  1650,                                   !- Elevation {m}
  ;                                       !- Terrain

OS:SizingPeriod:DesignDay,
  {f837d515-d01d-4dd0-a9c8-be5478567b67}, !- Handle
  Denver Intl Ap Ann Clg .4% Condns DB=>MWB, !- Name
  34.6,                                   !- Maximum Dry-Bulb Temperature {C}
  15.2,                                   !- Daily Dry-Bulb Temperature Range {deltaC}
  15.7,                                   !- Humidity Indicating Conditions at Maximum Dry-Bulb
  83011,                                  !- Barometric Pressure {Pa}
  4.2,                                    !- Wind Speed {m/s}
  80,                                     !- Wind Direction {deg}
  0,                                      !- Sky Clearness
  0,                                      !- Rain Indicator
  0,                                      !- Snow Indicator
  21,                                     !- Day of Month
  7,                                      !- Month
  SummerDesignDay,                        !- Day Type
  0,                                      !- Daylight Saving Time Indicator
  Wetbulb,                                !- Humidity Indicating Type
  ,                                       !- Humidity Indicating Day Schedule Name
  DefaultMultipliers,                     !- Dry-Bulb Temperature Range Modifier Type
  ,                                       !- Dry-Bulb Temperature Range Modifier Schedule Name
  ASHRAETau,                              !- Solar Model Indicator
  ,                                       !- Beam Solar Day Schedule Name
  ,                                       !- Diffuse Solar Day Schedule Name
  0.424,                                  !- ASHRAE Taub {dimensionless}
  2.012;                                  !- ASHRAE Taud {dimensionless}

OS:SizingPeriod:DesignDay,
  {6a844759-129f-4fce-b526-4de2517daf48}, !- Handle
  Denver Intl Ap Ann Htg 99.6% Condns DB, !- Name
  -17.4,                                  !- Maximum Dry-Bulb Temperature {C}
  0,                                      !- Daily Dry-Bulb Temperature Range {deltaC}
  -17.4,                                  !- Humidity Indicating Conditions at Maximum Dry-Bulb
  83011,                                  !- Barometric Pressure {Pa}
  3.3,                                    !- Wind Speed {m/s}
  160,                                    !- Wind Direction {deg}
  0,                                      !- Sky Clearness
  0,                                      !- Rain Indicator
  0,                                      !- Snow Indicator
  21,                                     !- Day of Month
  12,                                     !- Month
  WinterDesignDay,                        !- Day Type
  0,                                      !- Daylight Saving Time Indicator
  Wetbulb,                                !- Humidity Indicating Type
  ,                                       !- Humidity Indicating Day Schedule Name
  DefaultMultipliers,                     !- Dry-Bulb Temperature Range Modifier Type
  ,                                       !- Dry-Bulb Temperature Range Modifier Schedule Name
  ASHRAEClearSky;                         !- Solar Model Indicator

OS:Space,
  {c6d979c4-be5e-4397-8857-e6ba5cae179c}, !- Handle
  Space 1 - 9,                            !- Name
  ,                                       !- Space Type Name
  ,                                       !- Default Construction Set Name
  ,                                       !- Default Schedule Set Name
  ,                                       !- Direction of Relative North {deg}
  ,                                       !- X Origin {m}
  ,                                       !- Y Origin {m}
  ,                                       !- Z Origin {m}
  {31374419-1122-479a-8bfa-065660b3dba8}, !- Building Story Name
  {fbfdbf07-c03f-49a5-8db3-5c1690a47526}, !- Thermal Zone Name
  ,                                       !- Part of Total Floor Area
  ,                                       !- Design Specification Outdoor Air Object Name
  ;                                       !- Building Unit Name

OS:Surface,
  {d9f22f5a-bed8-4235-a4df-f6acb7a0e7fe}, !- Handle
  Face 61,                                !- Name
  Wall,                                   !- Surface Type
  ,                                       !- Construction Name
  {c6d979c4-be5e-4397-8857-e6ba5cae179c}, !- Space Name
  Outdoors,                               !- Outside Boundary Condition
  ,                                       !- Outside Boundary Condition Object
  SunExposed,                             !- Sun Exposure
  WindExposed,                            !- Wind Exposure
  ,                                       !- View Factor to Ground
  ,                                       !- Number of Vertices
  27.432, -21.336, 2.4384,                !- X,Y,Z Vertex 1 {m}
  13.716, -21.336, 2.4384,                !- X,Y,Z Vertex 2 {m}
  13.716, -21.336, 0,                     !- X,Y,Z Vertex 3 {m}
  27.432, -21.336, 0;                     !- X,Y,Z Vertex 4 {m}

OS:Surface,
  {cba33c7f-aa4b-49df-8efc-d2e46fdb101e}, !- Handle
  Face 58,                                !- Name
  Floor,                                  !- Surface Type
  ,                                       !- Construction Name
  {c6d979c4-be5e-4397-8857-e6ba5cae179c}, !- Space Name
  Ground,                                 !- Outside Boundary Condition
  ,                                       !- Outside Boundary Condition Object
  NoSun,                                  !- Sun Exposure
  NoWind,                                 !- Wind Exposure
  ,                                       !- View Factor to Ground
  ,                                       !- Number of Vertices
  27.432, 0, 0,                           !- X,Y,Z Vertex 1 {m}
  27.432, -21.336, 0,                     !- X,Y,Z Vertex 2 {m}
  13.716, -21.336, 0,                     !- X,Y,Z Vertex 3 {m}
  13.716, -6.096, 0,                      !- X,Y,Z Vertex 4 {m}
  13.716, 0, 0;                           !- X,Y,Z Vertex 5 {m}

OS:Surface,
  {edc3000d-d0a6-464a-893a-ba381abdeeb1}, !- Handle
  Face 59,                                !- Name
  RoofCeiling,                            !- Surface Type
  ,                                       !- Construction Name
  {c6d979c4-be5e-4397-8857-e6ba5cae179c}, !- Space Name
  Outdoors,                               !- Outside Boundary Condition
  ,                                       !- Outside Boundary Condition Object
  SunExposed,                             !- Sun Exposure
  WindExposed,                            !- Wind Exposure
  ,                                       !- View Factor to Ground
  ,                                       !- Number of Vertices
  13.716, 0, 2.4384,                      !- X,Y,Z Vertex 1 {m}
  13.716, -6.096, 2.4384,                 !- X,Y,Z Vertex 2 {m}
  13.716, -21.336, 2.4384,                !- X,Y,Z Vertex 3 {m}
  27.432, -21.336, 2.4384,                !- X,Y,Z Vertex 4 {m}
  27.432, 0, 2.4384;                      !- X,Y,Z Vertex 5 {m}

OS:Surface,
  {d001c582-9133-4325-b3d2-3b3cfeb1adcb}, !- Handle
  Face 60,                                !- Name
  Wall,                                   !- Surface Type
  ,                                       !- Construction Name
  {c6d979c4-be5e-4397-8857-e6ba5cae179c}, !- Space Name
  Outdoors,                               !- Outside Boundary Condition
  ,                                       !- Outside Boundary Condition Object
  SunExposed,                             !- Sun Exposure
  WindExposed,                            !- Wind Exposure
  ,                                       !- View Factor to Ground
  ,                                       !- Number of Vertices
  27.432, 0, 2.4384,                      !- X,Y,Z Vertex 1 {m}
  27.432, -21.336, 2.4384,                !- X,Y,Z Vertex 2 {m}
  27.432, -21.336, 0,                     !- X,Y,Z Vertex 3 {m}
  27.432, 0, 0;                           !- X,Y,Z Vertex 4 {m}

OS:Surface,
  {4d7e10f7-c790-4020-850a-aa803fb1c337}, !- Handle
  Face 62,                                !- Name
  Wall,                                   !- Surface Type
  ,                                       !- Construction Name
  {c6d979c4-be5e-4397-8857-e6ba5cae179c}, !- Space Name
  Surface,                                !- Outside Boundary Condition
  {28e3a3d1-a57a-4fec-ba59-24d82457946d}, !- Outside Boundary Condition Object
  NoSun,                                  !- Sun Exposure
  NoWind,                                 !- Wind Exposure
  ,                                       !- View Factor to Ground
  ,                                       !- Number of Vertices
  13.716, -21.336, 2.4384,                !- X,Y,Z Vertex 1 {m}
  13.716, -6.096, 2.4384,                 !- X,Y,Z Vertex 2 {m}
  13.716, -6.096, 0,                      !- X,Y,Z Vertex 3 {m}
  13.716, -21.336, 0;                     !- X,Y,Z Vertex 4 {m}

OS:Surface,
  {5b4149fc-1b33-4d8d-a29b-dbc1ebdd5a5b}, !- Handle
  Face 63,                                !- Name
  Wall,                                   !- Surface Type
  ,                                       !- Construction Name
  {c6d979c4-be5e-4397-8857-e6ba5cae179c}, !- Space Name
  Surface,                                !- Outside Boundary Condition
  {991b85bd-3e54-4f98-b01a-fda2935a4d17}, !- Outside Boundary Condition Object
  NoSun,                                  !- Sun Exposure
  NoWind,                                 !- Wind Exposure
  ,                                       !- View Factor to Ground
  ,                                       !- Number of Vertices
  13.716, -6.096, 2.4384,                 !- X,Y,Z Vertex 1 {m}
  13.716, 0, 2.4384,                      !- X,Y,Z Vertex 2 {m}
  13.716, 0, 0,                           !- X,Y,Z Vertex 3 {m}
  13.716, -6.096, 0;                      !- X,Y,Z Vertex 4 {m}

OS:Surface,
  {7420f997-187e-44df-9945-3db345bae4a8}, !- Handle
  Face 64,                                !- Name
  Wall,                                   !- Surface Type
  ,                                       !- Construction Name
  {c6d979c4-be5e-4397-8857-e6ba5cae179c}, !- Space Name
  Surface,                                !- Outside Boundary Condition
  {c7e410db-3487-48b2-bd36-0b609b50f227}, !- Outside Boundary Condition Object
  NoSun,                                  !- Sun Exposure
  NoWind,                                 !- Wind Exposure
  ,                                       !- View Factor to Ground
  ,                                       !- Number of Vertices
  13.716, 0, 2.4384,                      !- X,Y,Z Vertex 1 {m}
  27.432, 0, 2.4384,                      !- X,Y,Z Vertex 2 {m}
  27.432, 0, 0,                           !- X,Y,Z Vertex 3 {m}
  13.716, 0, 0;                           !- X,Y,Z Vertex 4 {m}

OS:BuildingStory,
  {31374419-1122-479a-8bfa-065660b3dba8}, !- Handle
  Story 1,                                !- Name
  0,                                      !- Nominal Z Coordinate {m}
  2.4384,                                 !- Nominal Floor to Floor Height {m}
  ,                                       !- Default Construction Set Name
  ,                                       !- Default Schedule Set Name
  {6bb6b39a-a4db-4b19-832b-0cfac50d3d9a}, !- Group Rendering Name
  2.4384;                                 !- Nominal Floor to Ceiling Height {m}

OS:Rendering:Color,
  {6bb6b39a-a4db-4b19-832b-0cfac50d3d9a}, !- Handle
  Rendering Color 1,                      !- Name
  136,                                    !- Rendering Red Value
  204,                                    !- Rendering Green Value
  238;                                    !- Rendering Blue Value

OS:Space,
  {34d431c0-8578-4ff1-8bc7-c8596b868ef1}, !- Handle
  Space 1 - 7,                            !- Name
  ,                                       !- Space Type Name
  ,                                       !- Default Construction Set Name
  ,                                       !- Default Schedule Set Name
  ,                                       !- Direction of Relative North {deg}
  ,                                       !- X Origin {m}
  ,                                       !- Y Origin {m}
  ,                                       !- Z Origin {m}
  {31374419-1122-479a-8bfa-065660b3dba8}, !- Building Story Name
  {ec208c79-e96f-424d-86a2-6859a2e92f2d}, !- Thermal Zone Name
  ,                                       !- Part of Total Floor Area
  ,                                       !- Design Specification Outdoor Air Object Name
  ;                                       !- Building Unit Name

OS:Surface,
  {37018e5c-8b1e-492b-af65-6b479372b91b}, !- Handle
  Face 48,                                !- Name
  Wall,                                   !- Surface Type
  ,                                       !- Construction Name
  {34d431c0-8578-4ff1-8bc7-c8596b868ef1}, !- Space Name
  Surface,                                !- Outside Boundary Condition
  {c838b3b6-de5b-425e-a47b-460121fed7a8}, !- Outside Boundary Condition Object
  NoSun,                                  !- Sun Exposure
  NoWind,                                 !- Wind Exposure
  ,                                       !- View Factor to Ground
  ,                                       !- Number of Vertices
  13.716, 0, 2.4384,                      !- X,Y,Z Vertex 1 {m}
  6.096, 0, 2.4384,                       !- X,Y,Z Vertex 2 {m}
  6.096, 0, 0,                            !- X,Y,Z Vertex 3 {m}
  13.716, 0, 0;                           !- X,Y,Z Vertex 4 {m}

OS:Surface,
  {940cbe8c-9ec2-4f7f-b028-ff4b4ef61e62}, !- Handle
  Face 49,                                !- Name
  Wall,                                   !- Surface Type
  ,                                       !- Construction Name
  {34d431c0-8578-4ff1-8bc7-c8596b868ef1}, !- Space Name
  Surface,                                !- Outside Boundary Condition
  {1a0c6740-931b-4888-97bf-7202ed783ded}, !- Outside Boundary Condition Object
  NoSun,                                  !- Sun Exposure
  NoWind,                                 !- Wind Exposure
  ,                                       !- View Factor to Ground
  ,                                       !- Number of Vertices
  6.096, 0, 2.4384,                       !- X,Y,Z Vertex 1 {m}
  6.096, 6.096, 2.4384,                   !- X,Y,Z Vertex 2 {m}
  6.096, 6.096, 0,                        !- X,Y,Z Vertex 3 {m}
  6.096, 0, 0;                            !- X,Y,Z Vertex 4 {m}

OS:Surface,
  {e01f5409-d40b-4d60-aeb7-aa1476356dff}, !- Handle
  Face 45,                                !- Name
  RoofCeiling,                            !- Surface Type
  ,                                       !- Construction Name
  {34d431c0-8578-4ff1-8bc7-c8596b868ef1}, !- Space Name
  Outdoors,                               !- Outside Boundary Condition
  ,                                       !- Outside Boundary Condition Object
  SunExposed,                             !- Sun Exposure
  WindExposed,                            !- Wind Exposure
  ,                                       !- View Factor to Ground
  ,                                       !- Number of Vertices
  6.096, 6.096, 2.4384,                   !- X,Y,Z Vertex 1 {m}
  6.096, 0, 2.4384,                       !- X,Y,Z Vertex 2 {m}
  13.716, 0, 2.4384,                      !- X,Y,Z Vertex 3 {m}
  27.432, 0, 2.4384,                      !- X,Y,Z Vertex 4 {m}
  27.432, 6.096, 2.4384;                  !- X,Y,Z Vertex 5 {m}

OS:Surface,
  {2646281b-de15-40d2-bc62-0d87d22bf5e5}, !- Handle
  Face 46,                                !- Name
  Wall,                                   !- Surface Type
  ,                                       !- Construction Name
  {34d431c0-8578-4ff1-8bc7-c8596b868ef1}, !- Space Name
  Outdoors,                               !- Outside Boundary Condition
  ,                                       !- Outside Boundary Condition Object
  SunExposed,                             !- Sun Exposure
  WindExposed,                            !- Wind Exposure
  ,                                       !- View Factor to Ground
  ,                                       !- Number of Vertices
  27.432, 6.096, 2.4384,                  !- X,Y,Z Vertex 1 {m}
  27.432, 0, 2.4384,                      !- X,Y,Z Vertex 2 {m}
  27.432, 0, 0,                           !- X,Y,Z Vertex 3 {m}
  27.432, 6.096, 0;                       !- X,Y,Z Vertex 4 {m}

OS:Surface,
  {ddba5834-3271-450b-8e99-13b1338a98ec}, !- Handle
  Face 44,                                !- Name
  Floor,                                  !- Surface Type
  ,                                       !- Construction Name
  {34d431c0-8578-4ff1-8bc7-c8596b868ef1}, !- Space Name
  Ground,                                 !- Outside Boundary Condition
  ,                                       !- Outside Boundary Condition Object
  NoSun,                                  !- Sun Exposure
  NoWind,                                 !- Wind Exposure
  ,                                       !- View Factor to Ground
  ,                                       !- Number of Vertices
  27.432, 6.096, 0,                       !- X,Y,Z Vertex 1 {m}
  27.432, 0, 0,                           !- X,Y,Z Vertex 2 {m}
  13.716, 0, 0,                           !- X,Y,Z Vertex 3 {m}
  6.096, 0, 0,                            !- X,Y,Z Vertex 4 {m}
  6.096, 6.096, 0;                        !- X,Y,Z Vertex 5 {m}

OS:Surface,
  {c7e410db-3487-48b2-bd36-0b609b50f227}, !- Handle
  Face 47,                                !- Name
  Wall,                                   !- Surface Type
  ,                                       !- Construction Name
  {34d431c0-8578-4ff1-8bc7-c8596b868ef1}, !- Space Name
  Surface,                                !- Outside Boundary Condition
  {7420f997-187e-44df-9945-3db345bae4a8}, !- Outside Boundary Condition Object
  NoSun,                                  !- Sun Exposure
  NoWind,                                 !- Wind Exposure
  ,                                       !- View Factor to Ground
  ,                                       !- Number of Vertices
  27.432, 0, 2.4384,                      !- X,Y,Z Vertex 1 {m}
  13.716, 0, 2.4384,                      !- X,Y,Z Vertex 2 {m}
  13.716, 0, 0,                           !- X,Y,Z Vertex 3 {m}
  27.432, 0, 0;                           !- X,Y,Z Vertex 4 {m}

OS:Surface,
  {f2354598-98a0-4d30-a649-d97502494dfc}, !- Handle
  Face 50,                                !- Name
  Wall,                                   !- Surface Type
  ,                                       !- Construction Name
  {34d431c0-8578-4ff1-8bc7-c8596b868ef1}, !- Space Name
  Outdoors,                               !- Outside Boundary Condition
  ,                                       !- Outside Boundary Condition Object
  SunExposed,                             !- Sun Exposure
  WindExposed,                            !- Wind Exposure
  ,                                       !- View Factor to Ground
  ,                                       !- Number of Vertices
  6.096, 6.096, 2.4384,                   !- X,Y,Z Vertex 1 {m}
  27.432, 6.096, 2.4384,                  !- X,Y,Z Vertex 2 {m}
  27.432, 6.096, 0,                       !- X,Y,Z Vertex 3 {m}
  6.096, 6.096, 0;                        !- X,Y,Z Vertex 4 {m}

OS:Space,
  {373d463f-4f07-4d95-9ad2-1397c1fcfbe1}, !- Handle
  Space 1 - 8,                            !- Name
  ,                                       !- Space Type Name
  ,                                       !- Default Construction Set Name
  ,                                       !- Default Schedule Set Name
  ,                                       !- Direction of Relative North {deg}
  ,                                       !- X Origin {m}
  ,                                       !- Y Origin {m}
  ,                                       !- Z Origin {m}
  {31374419-1122-479a-8bfa-065660b3dba8}, !- Building Story Name
  {561382a0-b603-48e7-bd09-c889177e7813}, !- Thermal Zone Name
  ,                                       !- Part of Total Floor Area
  ,                                       !- Design Specification Outdoor Air Object Name
  ;                                       !- Building Unit Name

OS:Surface,
  {bd7801bb-06d0-4c52-8cc3-221b76a437b0}, !- Handle
  Face 51,                                !- Name
  Floor,                                  !- Surface Type
  ,                                       !- Construction Name
  {373d463f-4f07-4d95-9ad2-1397c1fcfbe1}, !- Space Name
  Ground,                                 !- Outside Boundary Condition
  ,                                       !- Outside Boundary Condition Object
  NoSun,                                  !- Sun Exposure
  NoWind,                                 !- Wind Exposure
  ,                                       !- View Factor to Ground
  ,                                       !- Number of Vertices
  13.716, 0, 0,                           !- X,Y,Z Vertex 1 {m}
  13.716, -6.096, 0,                      !- X,Y,Z Vertex 2 {m}
  0, -6.096, 0,                           !- X,Y,Z Vertex 3 {m}
  0, 0, 0,                                !- X,Y,Z Vertex 4 {m}
  6.096, 0, 0;                            !- X,Y,Z Vertex 5 {m}

OS:Surface,
  {fbb3a7a6-7129-4f8a-af3d-3a108522c32a}, !- Handle
  Face 52,                                !- Name
  RoofCeiling,                            !- Surface Type
  ,                                       !- Construction Name
  {373d463f-4f07-4d95-9ad2-1397c1fcfbe1}, !- Space Name
  Outdoors,                               !- Outside Boundary Condition
  ,                                       !- Outside Boundary Condition Object
  SunExposed,                             !- Sun Exposure
  WindExposed,                            !- Wind Exposure
  ,                                       !- View Factor to Ground
  ,                                       !- Number of Vertices
  6.096, 0, 2.4384,                       !- X,Y,Z Vertex 1 {m}
  0, 0, 2.4384,                           !- X,Y,Z Vertex 2 {m}
  0, -6.096, 2.4384,                      !- X,Y,Z Vertex 3 {m}
  13.716, -6.096, 2.4384,                 !- X,Y,Z Vertex 4 {m}
  13.716, 0, 2.4384;                      !- X,Y,Z Vertex 5 {m}

OS:Surface,
  {991b85bd-3e54-4f98-b01a-fda2935a4d17}, !- Handle
  Face 53,                                !- Name
  Wall,                                   !- Surface Type
  ,                                       !- Construction Name
  {373d463f-4f07-4d95-9ad2-1397c1fcfbe1}, !- Space Name
  Surface,                                !- Outside Boundary Condition
  {5b4149fc-1b33-4d8d-a29b-dbc1ebdd5a5b}, !- Outside Boundary Condition Object
  NoSun,                                  !- Sun Exposure
  NoWind,                                 !- Wind Exposure
  ,                                       !- View Factor to Ground
  ,                                       !- Number of Vertices
  13.716, 0, 2.4384,                      !- X,Y,Z Vertex 1 {m}
  13.716, -6.096, 2.4384,                 !- X,Y,Z Vertex 2 {m}
  13.716, -6.096, 0,                      !- X,Y,Z Vertex 3 {m}
  13.716, 0, 0;                           !- X,Y,Z Vertex 4 {m}

OS:Surface,
  {1fb7b52b-6ad8-405c-9a86-5256aa174123}, !- Handle
  Face 54,                                !- Name
  Wall,                                   !- Surface Type
  ,                                       !- Construction Name
  {373d463f-4f07-4d95-9ad2-1397c1fcfbe1}, !- Space Name
  Surface,                                !- Outside Boundary Condition
  {73525944-9203-4d6e-b314-1f1da4ff7f88}, !- Outside Boundary Condition Object
  NoSun,                                  !- Sun Exposure
  NoWind,                                 !- Wind Exposure
  ,                                       !- View Factor to Ground
  ,                                       !- Number of Vertices
  13.716, -6.096, 2.4384,                 !- X,Y,Z Vertex 1 {m}
  0, -6.096, 2.4384,                      !- X,Y,Z Vertex 2 {m}
  0, -6.096, 0,                           !- X,Y,Z Vertex 3 {m}
  13.716, -6.096, 0;                      !- X,Y,Z Vertex 4 {m}

OS:Surface,
  {fa66cf3a-d663-42f5-8541-17ff57108cc8}, !- Handle
  Face 55,                                !- Name
  Wall,                                   !- Surface Type
  ,                                       !- Construction Name
  {373d463f-4f07-4d95-9ad2-1397c1fcfbe1}, !- Space Name
  Surface,                                !- Outside Boundary Condition
  {1ca3760c-d8b6-4b38-a3e1-2855fb97093e}, !- Outside Boundary Condition Object
  NoSun,                                  !- Sun Exposure
  NoWind,                                 !- Wind Exposure
  ,                                       !- View Factor to Ground
  ,                                       !- Number of Vertices
  0, -6.096, 2.4384,                      !- X,Y,Z Vertex 1 {m}
  0, 0, 2.4384,                           !- X,Y,Z Vertex 2 {m}
  0, 0, 0,                                !- X,Y,Z Vertex 3 {m}
  0, -6.096, 0;                           !- X,Y,Z Vertex 4 {m}

OS:Surface,
  {98a34e39-9e29-4c7b-9df8-5a5e5543488f}, !- Handle
  Face 56,                                !- Name
  Wall,                                   !- Surface Type
  ,                                       !- Construction Name
  {373d463f-4f07-4d95-9ad2-1397c1fcfbe1}, !- Space Name
  Surface,                                !- Outside Boundary Condition
  {6633b8ea-2086-49f2-a1de-de7d274f13c4}, !- Outside Boundary Condition Object
  NoSun,                                  !- Sun Exposure
  NoWind,                                 !- Wind Exposure
  ,                                       !- View Factor to Ground
  ,                                       !- Number of Vertices
  0, 0, 2.4384,                           !- X,Y,Z Vertex 1 {m}
  6.096, 0, 2.4384,                       !- X,Y,Z Vertex 2 {m}
  6.096, 0, 0,                            !- X,Y,Z Vertex 3 {m}
  0, 0, 0;                                !- X,Y,Z Vertex 4 {m}

OS:Surface,
  {c838b3b6-de5b-425e-a47b-460121fed7a8}, !- Handle
  Face 57,                                !- Name
  Wall,                                   !- Surface Type
  ,                                       !- Construction Name
  {373d463f-4f07-4d95-9ad2-1397c1fcfbe1}, !- Space Name
  Surface,                                !- Outside Boundary Condition
  {37018e5c-8b1e-492b-af65-6b479372b91b}, !- Outside Boundary Condition Object
  NoSun,                                  !- Sun Exposure
  NoWind,                                 !- Wind Exposure
  ,                                       !- View Factor to Ground
  ,                                       !- Number of Vertices
  6.096, 0, 2.4384,                       !- X,Y,Z Vertex 1 {m}
  13.716, 0, 2.4384,                      !- X,Y,Z Vertex 2 {m}
  13.716, 0, 0,                           !- X,Y,Z Vertex 3 {m}
  6.096, 0, 0;                            !- X,Y,Z Vertex 4 {m}

OS:Space,
  {9a2dca82-fa45-409e-bd1c-b738004fdaf5}, !- Handle
  Space 1 - 5,                            !- Name
  ,                                       !- Space Type Name
  ,                                       !- Default Construction Set Name
  ,                                       !- Default Schedule Set Name
  ,                                       !- Direction of Relative North {deg}