
OS:Version,
  {8112d91e-9a14-4959-9529-46784ef5adb9}, !- Handle
  2.9.1;                                  !- Version Identifier

OS:Building,
  {bce316d2-5088-4eda-bb07-c62b0dce310a}, !- Handle
  90.1-2013-LargeOffice-ASHRAE 169-2006-5A PRM baseline created: 2019-12-18 20:45:16 -0700, !- Name
  ,                                       !- Building Sector Type
  ,                                       !- North Axis {deg}
  ,                                       !- Nominal Floor to Floor Height {m}
  ,                                       !- Space Type Name
  ,                                       !- Default Construction Set Name
  ;                                       !- Default Schedule Set Name

OS:Sizing:Parameters,
  {221c5c55-feb4-44c1-b5d6-6903ab15d458}, !- Handle
  1.25,                                   !- Heating Sizing Factor
  1.15;                                   !- Cooling Sizing Factor

OS:SimulationControl,
  {cf702d35-eb4d-4d6e-a0ab-1b9a97aed6db}, !- Handle
  ,                                       !- Do Zone Sizing Calculation
  ,                                       !- Do System Sizing Calculation
  ,                                       !- Do Plant Sizing Calculation
  No,                                     !- Run Simulation for Sizing Periods
  Yes;                                    !- Run Simulation for Weather File Run Periods

OS:WeatherFile,
  {cae65c84-fb33-4d75-9eed-1194a9133392}, !- Handle
  Denver Intl Ap,                         !- City
  CO,                                     !- State Province Region
  USA,                                    !- Country
  TMY3,                                   !- Data Source
  725650,                                 !- WMO Number
  39.83,                                  !- Latitude {deg}
  -104.65,                                !- Longitude {deg}
  -7,                                     !- Time Zone {hr}
  1650,                                   !- Elevation {m}
  file:../test/data/USA_CO_Denver.Intl.AP.725650_TMY3.epw, !- Url
  E23378AA;                               !- Checksum

OS:Site,
  {e27d2a04-4e07-411f-a780-4eb992da519e}, !- Handle
  Denver Intl Ap_CO_USA,                  !- Name
  39.83,                                  !- Latitude {deg}
  -104.65,                                !- Longitude {deg}
  -7,                                     !- Time Zone {hr}
  1650,                                   !- Elevation {m}
  ;                                       !- Terrain

OS:SizingPeriod:DesignDay,
  {fc65df18-59e0-4dfe-8473-0d005d44a49f}, !- Handle
  Denver Intl Ap Ann Clg .4% Condns DB=>MWB, !- Name
  34.6,                                   !- Maximum Dry-Bulb Temperature {C}
  15.2,                                   !- Daily Dry-Bulb Temperature Range {deltaC}
  15.7,                                   !- Humidity Indicating Conditions at Maximum Dry-Bulb
  83011,                                  !- Barometric Pressure {Pa}
  4.2,                                    !- Wind Speed {m/s}
  80,                                     !- Wind Direction {deg}
  0,                                      !- Sky Clearness
  0,                                      !- Rain Indicator
  0,                                      !- Snow Indicator
  21,                                     !- Day of Month
  7,                                      !- Month
  SummerDesignDay,                        !- Day Type
  0,                                      !- Daylight Saving Time Indicator
  Wetbulb,                                !- Humidity Indicating Type
  ,                                       !- Humidity Indicating Day Schedule Name
  DefaultMultipliers,                     !- Dry-Bulb Temperature Range Modifier Type
  ,                                       !- Dry-Bulb Temperature Range Modifier Schedule Name
  ASHRAETau,                              !- Solar Model Indicator
  ,                                       !- Beam Solar Day Schedule Name
  ,                                       !- Diffuse Solar Day Schedule Name
  0.424,                                  !- ASHRAE Taub {dimensionless}
  2.012;                                  !- ASHRAE Taud {dimensionless}

OS:SizingPeriod:DesignDay,
  {49142870-fa87-40c6-a9b3-24f700d8c5b0}, !- Handle
  Denver Intl Ap Ann Htg 99.6% Condns DB, !- Name
  -17.4,                                  !- Maximum Dry-Bulb Temperature {C}
  0,                                      !- Daily Dry-Bulb Temperature Range {deltaC}
  -17.4,                                  !- Humidity Indicating Conditions at Maximum Dry-Bulb
  83011,                                  !- Barometric Pressure {Pa}
  3.3,                                    !- Wind Speed {m/s}
  160,                                    !- Wind Direction {deg}
  0,                                      !- Sky Clearness
  0,                                      !- Rain Indicator
  0,                                      !- Snow Indicator
  21,                                     !- Day of Month
  12,                                     !- Month
  WinterDesignDay,                        !- Day Type
  0,                                      !- Daylight Saving Time Indicator
  Wetbulb,                                !- Humidity Indicating Type
  ,                                       !- Humidity Indicating Day Schedule Name
  DefaultMultipliers,                     !- Dry-Bulb Temperature Range Modifier Type
  ,                                       !- Dry-Bulb Temperature Range Modifier Schedule Name
  ASHRAEClearSky;                         !- Solar Model Indicator

OS:Space,
  {89811430-fb5f-4d3b-815f-7f904a3dc933}, !- Handle
  Space 1 - 5,                            !- Name
  ,                                       !- Space Type Name
  ,                                       !- Default Construction Set Name
  ,                                       !- Default Schedule Set Name
  ,                                       !- Direction of Relative North {deg}
  ,                                       !- X Origin {m}
  ,                                       !- Y Origin {m}
  ,                                       !- Z Origin {m}
  {020dd434-2d1a-4dd5-ab7a-decf03a92f77}, !- Building Story Name
  ,                                       !- Thermal Zone Name
  ,                                       !- Part of Total Floor Area
  ,                                       !- Design Specification Outdoor Air Object Name
  ;                                       !- Building Unit Name

OS:Surface,
  {f1799b43-e245-4cff-96cf-bcb00fa310bb}, !- Handle
  Face 32,                                !- Name
  Floor,                                  !- Surface Type
  ,                                       !- Construction Name
  {89811430-fb5f-4d3b-815f-7f904a3dc933}, !- Space Name
  Ground,                                 !- Outside Boundary Condition
  ,                                       !- Outside Boundary Condition Object
  NoSun,                                  !- Sun Exposure
  NoWind,                                 !- Wind Exposure
  ,                                       !- View Factor to Ground
  ,                                       !- Number of Vertices
  -12.192, 0, 0,                          !- X,Y,Z Vertex 1 {m}
  -12.192, -6.096, 0,                     !- X,Y,Z Vertex 2 {m}
  -24.384, -6.096, 0,                     !- X,Y,Z Vertex 3 {m}
  -24.384, 0, 0;                          !- X,Y,Z Vertex 4 {m}

OS:Surface,
  {f2518591-c7b5-4eaa-bbb9-96ca551eb66f}, !- Handle
  Face 33,                                !- Name
  RoofCeiling,                            !- Surface Type
  ,                                       !- Construction Name
  {89811430-fb5f-4d3b-815f-7f904a3dc933}, !- Space Name
  Outdoors,                               !- Outside Boundary Condition
  ,                                       !- Outside Boundary Condition Object
  SunExposed,                             !- Sun Exposure
  WindExposed,                            !- Wind Exposure
  ,                                       !- View Factor to Ground
  ,                                       !- Number of Vertices
  -24.384, 0, 2.4384,                     !- X,Y,Z Vertex 1 {m}
  -24.384, -6.096, 2.4384,                !- X,Y,Z Vertex 2 {m}
  -12.192, -6.096, 2.4384,                !- X,Y,Z Vertex 3 {m}
  -12.192, 0, 2.4384;                     !- X,Y,Z Vertex 4 {m}

OS:Surface,
  {a829b5e8-898a-4c92-9da8-333505c82d79}, !- Handle
  Face 34,                                !- Name
  Wall,                                   !- Surface Type
  ,                                       !- Construction Name
  {89811430-fb5f-4d3b-815f-7f904a3dc933}, !- Space Name
  Surface,                                !- Outside Boundary Condition
  {9b2d7954-af36-4aa6-84a3-cae5b8719978}, !- Outside Boundary Condition Object
  NoSun,                                  !- Sun Exposure
  NoWind,                                 !- Wind Exposure
  ,                                       !- View Factor to Ground
  ,                                       !- Number of Vertices
  -12.192, 0, 2.4384,                     !- X,Y,Z Vertex 1 {m}
  -12.192, -6.096, 2.4384,                !- X,Y,Z Vertex 2 {m}
  -12.192, -6.096, 0,                     !- X,Y,Z Vertex 3 {m}
  -12.192, 0, 0;                          !- X,Y,Z Vertex 4 {m}

OS:Surface,
  {0040f8c2-b22f-4fc4-9b79-357747adc04f}, !- Handle
  Face 35,                                !- Name
  Wall,                                   !- Surface Type
  ,                                       !- Construction Name
  {89811430-fb5f-4d3b-815f-7f904a3dc933}, !- Space Name
  Surface,                                !- Outside Boundary Condition
  {a037b34b-6754-453e-a5dc-5f86dac14303}, !- Outside Boundary Condition Object
  NoSun,                                  !- Sun Exposure
  NoWind,                                 !- Wind Exposure
  ,                                       !- View Factor to Ground
  ,                                       !- Number of Vertices
  -12.192, -6.096, 2.4384,                !- X,Y,Z Vertex 1 {m}
  -24.384, -6.096, 2.4384,                !- X,Y,Z Vertex 2 {m}
  -24.384, -6.096, 0,                     !- X,Y,Z Vertex 3 {m}
  -12.192, -6.096, 0;                     !- X,Y,Z Vertex 4 {m}

OS:Surface,
  {e754ac74-afb2-4011-8411-e6727b5c8a1e}, !- Handle
  Face 36,                                !- Name
  Wall,                                   !- Surface Type
  ,                                       !- Construction Name
  {89811430-fb5f-4d3b-815f-7f904a3dc933}, !- Space Name
  Surface,                                !- Outside Boundary Condition
  {baf91f77-3530-4810-a30e-f71f529916a1}, !- Outside Boundary Condition Object
  NoSun,                                  !- Sun Exposure
  NoWind,                                 !- Wind Exposure
  ,                                       !- View Factor to Ground
  ,                                       !- Number of Vertices
  -24.384, -6.096, 2.4384,                !- X,Y,Z Vertex 1 {m}
  -24.384, 0, 2.4384,                     !- X,Y,Z Vertex 2 {m}
  -24.384, 0, 0,                          !- X,Y,Z Vertex 3 {m}
  -24.384, -6.096, 0;                     !- X,Y,Z Vertex 4 {m}

OS:Surface,
  {9fbb8ebd-2b4e-40b0-a120-f3b3c6cc2efe}, !- Handle
  Face 37,                                !- Name
  Wall,                                   !- Surface Type
  ,                                       !- Construction Name
  {89811430-fb5f-4d3b-815f-7f904a3dc933}, !- Space Name
  Surface,                                !- Outside Boundary Condition
  {9609998b-e37a-4fba-bcd5-11106f6badb2}, !- Outside Boundary Condition Object
  NoSun,                                  !- Sun Exposure
  NoWind,                                 !- Wind Exposure
  ,                                       !- View Factor to Ground
  ,                                       !- Number of Vertices
  -24.384, 0, 2.4384,                     !- X,Y,Z Vertex 1 {m}
  -12.192, 0, 2.4384,                     !- X,Y,Z Vertex 2 {m}
  -12.192, 0, 0,                          !- X,Y,Z Vertex 3 {m}
  -24.384, 0, 0;                          !- X,Y,Z Vertex 4 {m}

OS:BuildingStory,
  {020dd434-2d1a-4dd5-ab7a-decf03a92f77}, !- Handle
  Story 1,                                !- Name
  0,                                      !- Nominal Z Coordinate {m}
  2.4384,                                 !- Nominal Floor to Floor Height {m}
  ,                                       !- Default Construction Set Name
  ,                                       !- Default Schedule Set Name
  {14c51e01-7628-419c-ae70-7c7b673d3179}, !- Group Rendering Name
  2.4384;                                 !- Nominal Floor to Ceiling Height {m}

OS:Rendering:Color,
  {14c51e01-7628-419c-ae70-7c7b673d3179}, !- Handle
  Rendering Color 1,                      !- Name
  136,                                    !- Rendering Red Value
  204,                                    !- Rendering Green Value
  238;                                    !- Rendering Blue Value

OS:Space,
  {7d9c658a-5463-4b72-8885-4ca1b52bf8ff}, !- Handle
  Space 1 - 7,                            !- Name
  ,                                       !- Space Type Name
  ,                                       !- Default Construction Set Name
  ,                                       !- Default Schedule Set Name
  ,                                       !- Direction of Relative North {deg}
  ,                                       !- X Origin {m}
  ,                                       !- Y Origin {m}
  ,                                       !- Z Origin {m}
  {020dd434-2d1a-4dd5-ab7a-decf03a92f77}, !- Building Story Name
  ,                                       !- Thermal Zone Name
  ,                                       !- Part of Total Floor Area
  ,                                       !- Design Specification Outdoor Air Object Name
  ;                                       !- Building Unit Name

OS:Surface,
  {eff10119-f371-4aba-9a26-ffac8cedcecb}, !- Handle
  Face 44,                                !- Name
  Floor,                                  !- Surface Type
  ,                                       !- Construction Name
  {7d9c658a-5463-4b72-8885-4ca1b52bf8ff}, !- Space Name
  Ground,                                 !- Outside Boundary Condition
  ,                                       !- Outside Boundary Condition Object
  NoSun,                                  !- Sun Exposure
  NoWind,                                 !- Wind Exposure
  ,                                       !- View Factor to Ground
  ,                                       !- Number of Vertices
  27.432, 6.096, 0,                       !- X,Y,Z Vertex 1 {m}
  27.432, 0, 0,                           !- X,Y,Z Vertex 2 {m}
  13.716, 0, 0,                           !- X,Y,Z Vertex 3 {m}
  6.096, 0, 0,                            !- X,Y,Z Vertex 4 {m}
  6.096, 6.096, 0;                        !- X,Y,Z Vertex 5 {m}

OS:Surface,
  {b6e46a60-10fa-428f-9011-ea6b6990a5cd}, !- Handle
  Face 45,                                !- Name
  RoofCeiling,                            !- Surface Type
  ,                                       !- Construction Name
  {7d9c658a-5463-4b72-8885-4ca1b52bf8ff}, !- Space Name
  Outdoors,                               !- Outside Boundary Condition
  ,                                       !- Outside Boundary Condition Object
  SunExposed,                             !- Sun Exposure
  WindExposed,                            !- Wind Exposure
  ,                                       !- View Factor to Ground
  ,                                       !- Number of Vertices
  6.096, 6.096, 2.4384,                   !- X,Y,Z Vertex 1 {m}
  6.096, 0, 2.4384,                       !- X,Y,Z Vertex 2 {m}
  13.716, 0, 2.4384,                      !- X,Y,Z Vertex 3 {m}
  27.432, 0, 2.4384,                      !- X,Y,Z Vertex 4 {m}
  27.432, 6.096, 2.4384;                  !- X,Y,Z Vertex 5 {m}

OS:Surface,
  {d8ff8959-53f7-43cb-ab84-80759954652d}, !- Handle
  Face 46,                                !- Name
  Wall,                                   !- Surface Type
  ,                                       !- Construction Name
  {7d9c658a-5463-4b72-8885-4ca1b52bf8ff}, !- Space Name
  Outdoors,                               !- Outside Boundary Condition
  ,                                       !- Outside Boundary Condition Object
  SunExposed,                             !- Sun Exposure
  WindExposed,                            !- Wind Exposure
  ,                                       !- View Factor to Ground
  ,                                       !- Number of Vertices
  27.432, 6.096, 2.4384,                  !- X,Y,Z Vertex 1 {m}
  27.432, 0, 2.4384,                      !- X,Y,Z Vertex 2 {m}
  27.432, 0, 0,                           !- X,Y,Z Vertex 3 {m}
  27.432, 6.096, 0;                       !- X,Y,Z Vertex 4 {m}

OS:Surface,
  {38eaaa85-7f47-48ed-8fab-b71c65fe757b}, !- Handle
  Face 47,                                !- Name
  Wall,                                   !- Surface Type
  ,                                       !- Construction Name
  {7d9c658a-5463-4b72-8885-4ca1b52bf8ff}, !- Space Name
  Surface,                                !- Outside Boundary Condition
  {9358a2ca-19c5-4ebc-960e-c758e8c1de5f}, !- Outside Boundary Condition Object
  NoSun,                                  !- Sun Exposure
  NoWind,                                 !- Wind Exposure
  ,                                       !- View Factor to Ground
  ,                                       !- Number of Vertices
  27.432, 0, 2.4384,                      !- X,Y,Z Vertex 1 {m}
  13.716, 0, 2.4384,                      !- X,Y,Z Vertex 2 {m}
  13.716, 0, 0,                           !- X,Y,Z Vertex 3 {m}
  27.432, 0, 0;                           !- X,Y,Z Vertex 4 {m}

OS:Surface,
  {fb112cff-60da-4767-9fe8-53152f045ca9}, !- Handle
  Face 48,                                !- Name
  Wall,                                   !- Surface Type
  ,                                       !- Construction Name
  {7d9c658a-5463-4b72-8885-4ca1b52bf8ff}, !- Space Name
  Surface,                                !- Outside Boundary Condition
  {395a884b-2e55-4cfc-ac88-1468485e8a54}, !- Outside Boundary Condition Object
  NoSun,                                  !- Sun Exposure
  NoWind,                                 !- Wind Exposure
  ,                                       !- View Factor to Ground
  ,                                       !- Number of Vertices
  13.716, 0, 2.4384,                      !- X,Y,Z Vertex 1 {m}
  6.096, 0, 2.4384,                       !- X,Y,Z Vertex 2 {m}
  6.096, 0, 0,                            !- X,Y,Z Vertex 3 {m}
  13.716, 0, 0;                           !- X,Y,Z Vertex 4 {m}

OS:Surface,
  {0c7a8d64-bcdc-49ff-bcf8-8fc3cc1b5215}, !- Handle
  Face 49,                                !- Name
  Wall,                                   !- Surface Type
  ,                                       !- Construction Name
  {7d9c658a-5463-4b72-8885-4ca1b52bf8ff}, !- Space Name
  Surface,                                !- Outside Boundary Condition
  {d2aeead9-5172-490a-8b07-b33592f2b856}, !- Outside Boundary Condition Object
  NoSun,                                  !- Sun Exposure
  NoWind,                                 !- Wind Exposure
  ,                                       !- View Factor to Ground
  ,                                       !- Number of Vertices
  6.096, 0, 2.4384,                       !- X,Y,Z Vertex 1 {m}
  6.096, 6.096, 2.4384,                   !- X,Y,Z Vertex 2 {m}
  6.096, 6.096, 0,                        !- X,Y,Z Vertex 3 {m}
  6.096, 0, 0;                            !- X,Y,Z Vertex 4 {m}

OS:Surface,
  {7fe1610c-bd5b-4e6b-8a0b-e5e6e3f88003}, !- Handle
  Face 50,                                !- Name
  Wall,                                   !- Surface Type
  ,                                       !- Construction Name
  {7d9c658a-5463-4b72-8885-4ca1b52bf8ff}, !- Space Name
  Outdoors,                               !- Outside Boundary Condition
  ,                                       !- Outside Boundary Condition Object
  SunExposed,                             !- Sun Exposure
  WindExposed,                            !- Wind Exposure
  ,                                       !- View Factor to Ground
  ,                                       !- Number of Vertices
  6.096, 6.096, 2.4384,                   !- X,Y,Z Vertex 1 {m}
  27.432, 6.096, 2.4384,                  !- X,Y,Z Vertex 2 {m}
  27.432, 6.096, 0,                       !- X,Y,Z Vertex 3 {m}
  6.096, 6.096, 0;                        !- X,Y,Z Vertex 4 {m}

OS:Space,
  {0d10cfeb-9e04-4636-b9ff-423b95d09329}, !- Handle
  Space 1 - 2,                            !- Name
  ,                                       !- Space Type Name
  ,                                       !- Default Construction Set Name
  ,                                       !- Default Schedule Set Name
  ,                                       !- Direction of Relative North {deg}
  ,                                       !- X Origin {m}
  ,                                       !- Y Origin {m}
  ,                                       !- Z Origin {m}
  {020dd434-2d1a-4dd5-ab7a-decf03a92f77}, !- Building Story Name
  ,                                       !- Thermal Zone Name
  ,                                       !- Part of Total Floor Area
  ,                                       !- Design Specification Outdoor Air Object Name
  ;                                       !- Building Unit Name

OS:Surface,
  {ffe65a3f-5ba7-432a-935c-0def2f74afc6}, !- Handle
  Face 9,                                 !- Name
  Floor,                                  !- Surface Type
  ,                                       !- Construction Name
  {0d10cfeb-9e04-4636-b9ff-423b95d09329}, !- Space Name
  Ground,                                 !- Outside Boundary Condition
  ,                                       !- Outside Boundary Condition Object
  NoSun,                                  !- Sun Exposure
  NoWind,                                 !- Wind Exposure
  ,                                       !- View Factor to Ground
  ,                                       !- Number of Vertices
  -44.196, 0, 0,                          !- X,Y,Z Vertex 1 {m}
  -44.196, 13.716, 0,                     !- X,Y,Z Vertex 2 {m}
  -24.384, 13.716, 0,                     !- X,Y,Z Vertex 3 {m}
  -24.384, 10.668, 0,                     !- X,Y,Z Vertex 4 {m}
  -24.384, 0, 0;                          !- X,Y,Z Vertex 5 {m}

OS:Surface,
  {62c8fd12-5aa4-435d-ad53-11eaf338e454}, !- Handle
  Face 10,                                !- Name
  RoofCeiling,                            !- Surface Type
  ,                                       !- Construction Name
  {0d10cfeb-9e04-4636-b9ff-423b95d09329}, !- Space Name
  Outdoors,                               !- Outside Boundary Condition
  ,                                       !- Outside Boundary Condition Object
  SunExposed,                             !- Sun Exposure
  WindExposed,                            !- Wind Exposure
  ,                                       !- View Factor to Ground
  ,                                       !- Number of Vertices
  -24.384, 0, 2.4384,                     !- X,Y,Z Vertex 1 {m}
  -24.384, 10.668, 2.4384,                !- X,Y,Z Vertex 2 {m}
  -24.384, 13.716, 2.4384,                !- X,Y,Z Vertex 3 {m}
  -44.196, 13.716, 2.4384,                !- X,Y,Z Vertex 4 {m}
  -44.196, 0, 2.4384;                     !- X,Y,Z Vertex 5 {m}

OS:Surface,
  {e643ee2e-1f34-4f1c-bd52-c89dfde77d9d}, !- Handle
  Face 11,                                !- Name
  Wall,                                   !- Surface Type
  ,                                       !- Construction Name
  {0d10cfeb-9e04-4636-b9ff-423b95d09329}, !- Space Name
  Outdoors,                               !- Outside Boundary Condition
  ,                                       !- Outside Boundary Condition Object
  SunExposed,                             !- Sun Exposure
  WindExposed,                            !- Wind Exposure
  ,                                       !- View Factor to Ground
  ,                                       !- Number of Vertices
  -44.196, 0, 2.4384,                     !- X,Y,Z Vertex 1 {m}
  -44.196, 13.716, 2.4384,                !- X,Y,Z Vertex 2 {m}
  -44.196, 13.716, 0,                     !- X,Y,Z Vertex 3 {m}
  -44.196, 0, 0;                          !- X,Y,Z Vertex 4 {m}

OS:Surface,
  {c5b02c1e-c133-49b2-a580-2d8f50bbf3f2}, !- Handle
  Face 12,                                !- Name
  Wall,                                   !- Surface Type
  ,                                       !- Construction Name
  {0d10cfeb-9e04-4636-b9ff-423b95d09329}, !- Space Name
  Outdoors,                               !- Outside Boundary Condition
  ,                                       !- Outside Boundary Condition Object
  SunExposed,                             !- Sun Exposure
  WindExposed,                            !- Wind Exposure
  ,                                       !- View Factor to Ground
  ,                                       !- Number of Vertices
  -44.196, 13.716, 2.4384,                !- X,Y,Z Vertex 1 {m}
  -24.384, 13.716, 2.4384,                !- X,Y,Z Vertex 2 {m}
  -24.384, 13.716, 0,                     !- X,Y,Z Vertex 3 {m}
  -44.196, 13.716, 0;                     !- X,Y,Z Vertex 4 {m}

OS:Surface,
  {9a7fb85c-1670-4467-b5c3-62c39c76dbe3}, !- Handle
  Face 14,                                !- Name
  Wall,                                   !- Surface Type
  ,                                       !- Construction Name
  {0d10cfeb-9e04-4636-b9ff-423b95d09329}, !- Space Name
  Surface,                                !- Outside Boundary Condition
  {e19613b4-7830-436e-b663-701173808def}, !- Outside Boundary Condition Object
  NoSun,                                  !- Sun Exposure
  NoWind,                                 !- Wind Exposure
  ,                                       !- View Factor to Ground
  ,                                       !- Number of Vertices
  -24.384, 10.668, 2.4384,                !- X,Y,Z Vertex 1 {m}
  -24.384, 0, 2.4384,                     !- X,Y,Z Vertex 2 {m}
  -24.384, 0, 0,                          !- X,Y,Z Vertex 3 {m}
  -24.384, 10.668, 0;                     !- X,Y,Z Vertex 4 {m}

OS:Surface,
  {4bcf97e2-987c-431c-a1a5-92bd7b145f9f}, !- Handle
  Face 13,                                !- Name
  Wall,                                   !- Surface Type
  ,                                       !- Construction Name
  {0d10cfeb-9e04-4636-b9ff-423b95d09329}, !- Space Name
  Outdoors,                               !- Outside Boundary Condition
  ,                                       !- Outside Boundary Condition Object
  SunExposed,                             !- Sun Exposure
  WindExposed,                            !- Wind Exposure
  ,                                       !- View Factor to Ground
  ,                                       !- Number of Vertices
  -24.384, 13.716, 2.4384,                !- X,Y,Z Vertex 1 {m}
  -24.384, 10.668, 2.4384,                !- X,Y,Z Vertex 2 {m}
  -24.384, 10.668, 0,                     !- X,Y,Z Vertex 3 {m}
  -24.384, 13.716, 0;                     !- X,Y,Z Vertex 4 {m}

OS:Surface,
  {3dbe4642-56b3-4062-987d-e6abd5614340}, !- Handle
  Face 15,                                !- Name
  Wall,                                   !- Surface Type
  ,                                       !- Construction Name
  {0d10cfeb-9e04-4636-b9ff-423b95d09329}, !- Space Name
  Surface,                                !- Outside Boundary Condition
  {d801ad32-d1d7-4873-b138-c8719b881c25}, !- Outside Boundary Condition Object
  NoSun,                                  !- Sun Exposure
  NoWind,                                 !- Wind Exposure
  ,                                       !- View Factor to Ground
  ,                                       !- Number of Vertices
  -24.384, 0, 2.4384,                     !- X,Y,Z Vertex 1 {m}
  -44.196, 0, 2.4384,                     !- X,Y,Z Vertex 2 {m}
  -44.196, 0, 0,                          !- X,Y,Z Vertex 3 {m}
  -24.384, 0, 0;                          !- X,Y,Z Vertex 4 {m}

OS:Space,
  {c61e8571-b27b-4816-9a73-4b5028e79efb}, !- Handle
  Space 1 - 3,                            !- Name
  ,                                       !- Space Type Name
  ,                                       !- Default Construction Set Name
  ,                                       !- Default Schedule Set Name
  ,                                       !- Direction of Relative North {deg}
  ,                                       !- X Origin {m}
  ,                                       !- Y Origin {m}
  ,                                       !- Z Origin {m}
  {020dd434-2d1a-4dd5-ab7a-decf03a92f77}, !- Building Story Name
  ,                                       !- Thermal Zone Name
  ,                                       !- Part of Total Floor Area
  ,                                       !- Design Specification Outdoor Air Object Name
  ;                                       !- Building Unit Name

OS:Surface,
  {e177a2a7-ee1b-42ee-a582-ee5f298b75cc}, !- Handle
  Face 16,                                !- Name
  Floor,                                  !- Surface Type
  ,                                       !- Construction Name
  {c61e8571-b27b-4816-9a73-4b5028e79efb}, !- Space Name
  Ground,                                 !- Outside Boundary Condition
  ,                                       !- Outside Boundary Condition Object
  NoSun,                                  !- Sun Exposure
  NoWind,                                 !- Wind Exposure