
OS:Version,
  {a515faba-8185-4fdf-a847-63f7f16bd4ee}, !- Handle
  2.9.1;                                  !- Version Identifier

OS:Building,
  {87a46ddd-65d5-4f1d-9876-198b31ede50e}, !- Handle
  90.1-2013-LargeOffice-ASHRAE 169-2006-5A PRM baseline created: 2019-12-19 20:02:58 -0700, !- Name
  ,                                       !- Building Sector Type
  ,                                       !- North Axis {deg}
  ,                                       !- Nominal Floor to Floor Height {m}
  ,                                       !- Space Type Name
  ,                                       !- Default Construction Set Name
  ;                                       !- Default Schedule Set Name

OS:Sizing:Parameters,
  {6f3605e3-be83-4571-8c86-1dabd5ea61df}, !- Handle
  1.25,                                   !- Heating Sizing Factor
  1.15;                                   !- Cooling Sizing Factor

OS:SimulationControl,
  {ecead54f-80ed-476c-a7d2-f8b106e5028f}, !- Handle
  ,                                       !- Do Zone Sizing Calculation
  ,                                       !- Do System Sizing Calculation
  ,                                       !- Do Plant Sizing Calculation
  No,                                     !- Run Simulation for Sizing Periods
  Yes;                                    !- Run Simulation for Weather File Run Periods

OS:WeatherFile,
  {608bedcf-fde9-4105-a555-c9a5e122426d}, !- Handle
  Denver Intl Ap,                         !- City
  CO,                                     !- State Province Region
  USA,                                    !- Country
  TMY3,                                   !- Data Source
  725650,                                 !- WMO Number
  39.83,                                  !- Latitude {deg}
  -104.65,                                !- Longitude {deg}
  -7,                                     !- Time Zone {hr}
  1650,                                   !- Elevation {m}
  file:///Users/sam/superstudio/test/data/USA_CO_Denver.Intl.AP.725650_TMY3.epw, !- Url
  E23378AA;                               !- Checksum

OS:Site,
  {83ad62c8-d5a6-4e3a-aa5a-bf51012989f8}, !- Handle
  Denver Intl Ap_CO_USA,                  !- Name
  39.83,                                  !- Latitude {deg}
  -104.65,                                !- Longitude {deg}
  -7,                                     !- Time Zone {hr}
  1650,                                   !- Elevation {m}
  ;                                       !- Terrain

OS:SizingPeriod:DesignDay,
  {ea9df9de-cef8-4dd7-9a02-497b8e40773c}, !- Handle
  Denver Intl Ap Ann Clg .4% Condns DB=>MWB, !- Name
  34.6,                                   !- Maximum Dry-Bulb Temperature {C}
  15.2,                                   !- Daily Dry-Bulb Temperature Range {deltaC}
  15.7,                                   !- Humidity Indicating Conditions at Maximum Dry-Bulb
  83011,                                  !- Barometric Pressure {Pa}
  4.2,                                    !- Wind Speed {m/s}
  80,                                     !- Wind Direction {deg}
  0,                                      !- Sky Clearness
  0,                                      !- Rain Indicator
  0,                                      !- Snow Indicator
  21,                                     !- Day of Month
  7,                                      !- Month
  SummerDesignDay,                        !- Day Type
  0,                                      !- Daylight Saving Time Indicator
  Wetbulb,                                !- Humidity Indicating Type
  ,                                       !- Humidity Indicating Day Schedule Name
  DefaultMultipliers,                     !- Dry-Bulb Temperature Range Modifier Type
  ,                                       !- Dry-Bulb Temperature Range Modifier Schedule Name
  ASHRAETau,                              !- Solar Model Indicator
  ,                                       !- Beam Solar Day Schedule Name
  ,                                       !- Diffuse Solar Day Schedule Name
  0.424,                                  !- ASHRAE Taub {dimensionless}
  2.012;                                  !- ASHRAE Taud {dimensionless}

OS:SizingPeriod:DesignDay,
  {6a8377c4-8f28-48c2-b21b-165d12c1e71c}, !- Handle
  Denver Intl Ap Ann Htg 99.6% Condns DB, !- Name
  -17.4,                                  !- Maximum Dry-Bulb Temperature {C}
  0,                                      !- Daily Dry-Bulb Temperature Range {deltaC}
  -17.4,                                  !- Humidity Indicating Conditions at Maximum Dry-Bulb
  83011,                                  !- Barometric Pressure {Pa}
  3.3,                                    !- Wind Speed {m/s}
  160,                                    !- Wind Direction {deg}
  0,                                      !- Sky Clearness
  0,                                      !- Rain Indicator
  0,                                      !- Snow Indicator
  21,                                     !- Day of Month
  12,                                     !- Month
  WinterDesignDay,                        !- Day Type
  0,                                      !- Daylight Saving Time Indicator
  Wetbulb,                                !- Humidity Indicating Type
  ,                                       !- Humidity Indicating Day Schedule Name
  DefaultMultipliers,                     !- Dry-Bulb Temperature Range Modifier Type
  ,                                       !- Dry-Bulb Temperature Range Modifier Schedule Name
  ASHRAEClearSky;                         !- Solar Model Indicator

OS:Space,
  {c9bd119a-58f6-419b-a5d7-be03764bf6ca}, !- Handle
  Space 1 - 8,                            !- Name
  ,                                       !- Space Type Name
  ,                                       !- Default Construction Set Name
  ,                                       !- Default Schedule Set Name
  ,                                       !- Direction of Relative North {deg}
  ,                                       !- X Origin {m}
  ,                                       !- Y Origin {m}
  ,                                       !- Z Origin {m}
  {e0fa5adc-6c1f-4ded-99ed-cda430ed5134}, !- Building Story Name
  ,                                       !- Thermal Zone Name
  ,                                       !- Part of Total Floor Area
  ,                                       !- Design Specification Outdoor Air Object Name
  ;                                       !- Building Unit Name

OS:Surface,
  {12e8a98b-fb50-4b5c-9050-9c07be3b2cf9}, !- Handle
  Face 56,                                !- Name
  Wall,                                   !- Surface Type
  ,                                       !- Construction Name
  {c9bd119a-58f6-419b-a5d7-be03764bf6ca}, !- Space Name
  Surface,                                !- Outside Boundary Condition
  {15eeb17b-f018-48c2-a974-5ab9c79fc99d}, !- Outside Boundary Condition Object
  NoSun,                                  !- Sun Exposure
  NoWind,                                 !- Wind Exposure
  ,                                       !- View Factor to Ground
  ,                                       !- Number of Vertices
  0, 0, 2.4384,                           !- X,Y,Z Vertex 1 {m}
  6.096, 0, 2.4384,                       !- X,Y,Z Vertex 2 {m}
  6.096, 0, 0,                            !- X,Y,Z Vertex 3 {m}
  0, 0, 0;                                !- X,Y,Z Vertex 4 {m}

OS:Surface,
  {adc179d4-f4ad-43aa-9f8c-95aa9e557ead}, !- Handle
  Face 57,                                !- Name
  Wall,                                   !- Surface Type
  ,                                       !- Construction Name
  {c9bd119a-58f6-419b-a5d7-be03764bf6ca}, !- Space Name
  Surface,                                !- Outside Boundary Condition
  {740d3e30-550c-4c1e-bebb-8b6fcd5581c1}, !- Outside Boundary Condition Object
  NoSun,                                  !- Sun Exposure
  NoWind,                                 !- Wind Exposure
  ,                                       !- View Factor to Ground
  ,                                       !- Number of Vertices
  6.096, 0, 2.4384,                       !- X,Y,Z Vertex 1 {m}
  13.716, 0, 2.4384,                      !- X,Y,Z Vertex 2 {m}
  13.716, 0, 0,                           !- X,Y,Z Vertex 3 {m}
  6.096, 0, 0;                            !- X,Y,Z Vertex 4 {m}

OS:Surface,
  {5470f1ce-64ef-485e-be59-5058bebdc240}, !- Handle
  Face 51,                                !- Name
  Floor,                                  !- Surface Type
  ,                                       !- Construction Name
  {c9bd119a-58f6-419b-a5d7-be03764bf6ca}, !- Space Name
  Ground,                                 !- Outside Boundary Condition
  ,                                       !- Outside Boundary Condition Object
  NoSun,                                  !- Sun Exposure
  NoWind,                                 !- Wind Exposure
  ,                                       !- View Factor to Ground
  ,                                       !- Number of Vertices
  13.716, 0, 0,                           !- X,Y,Z Vertex 1 {m}
  13.716, -6.096, 0,                      !- X,Y,Z Vertex 2 {m}
  0, -6.096, 0,                           !- X,Y,Z Vertex 3 {m}
  0, 0, 0,                                !- X,Y,Z Vertex 4 {m}
  6.096, 0, 0;                            !- X,Y,Z Vertex 5 {m}

OS:Surface,
  {5f853d3f-933a-4a88-9c2c-cbe855c44f7e}, !- Handle
  Face 52,                                !- Name
  RoofCeiling,                            !- Surface Type
  ,                                       !- Construction Name
  {c9bd119a-58f6-419b-a5d7-be03764bf6ca}, !- Space Name
  Outdoors,                               !- Outside Boundary Condition
  ,                                       !- Outside Boundary Condition Object
  SunExposed,                             !- Sun Exposure
  WindExposed,                            !- Wind Exposure
  ,                                       !- View Factor to Ground
  ,                                       !- Number of Vertices
  6.096, 0, 2.4384,                       !- X,Y,Z Vertex 1 {m}
  0, 0, 2.4384,                           !- X,Y,Z Vertex 2 {m}
  0, -6.096, 2.4384,                      !- X,Y,Z Vertex 3 {m}
  13.716, -6.096, 2.4384,                 !- X,Y,Z Vertex 4 {m}
  13.716, 0, 2.4384;                      !- X,Y,Z Vertex 5 {m}

OS:Surface,
  {573e3a5c-db0b-48aa-85e2-d17cedc7189b}, !- Handle
  Face 53,                                !- Name
  Wall,                                   !- Surface Type
  ,                                       !- Construction Name
  {c9bd119a-58f6-419b-a5d7-be03764bf6ca}, !- Space Name
  Surface,                                !- Outside Boundary Condition
  {f6489ed8-8d32-4b2a-8576-cb68642a56e2}, !- Outside Boundary Condition Object
  NoSun,                                  !- Sun Exposure
  NoWind,                                 !- Wind Exposure
  ,                                       !- View Factor to Ground
  ,                                       !- Number of Vertices
  13.716, 0, 2.4384,                      !- X,Y,Z Vertex 1 {m}
  13.716, -6.096, 2.4384,                 !- X,Y,Z Vertex 2 {m}
  13.716, -6.096, 0,                      !- X,Y,Z Vertex 3 {m}
  13.716, 0, 0;                           !- X,Y,Z Vertex 4 {m}

OS:Surface,
  {60676d02-59e4-4e98-bf4f-4351106d6b7b}, !- Handle
  Face 54,                                !- Name
  Wall,                                   !- Surface Type
  ,                                       !- Construction Name
  {c9bd119a-58f6-419b-a5d7-be03764bf6ca}, !- Space Name
  Surface,                                !- Outside Boundary Condition
  {08b796ec-02a4-4749-aaa8-0a3fdecdce48}, !- Outside Boundary Condition Object
  NoSun,                                  !- Sun Exposure
  NoWind,                                 !- Wind Exposure
  ,                                       !- View Factor to Ground
  ,                                       !- Number of Vertices
  13.716, -6.096, 2.4384,                 !- X,Y,Z Vertex 1 {m}
  0, -6.096, 2.4384,                      !- X,Y,Z Vertex 2 {m}
  0, -6.096, 0,                           !- X,Y,Z Vertex 3 {m}
  13.716, -6.096, 0;                      !- X,Y,Z Vertex 4 {m}

OS:Surface,
  {5b257050-38f7-4704-87a9-7b722336a668}, !- Handle
  Face 55,                                !- Name
  Wall,                                   !- Surface Type
  ,                                       !- Construction Name
  {c9bd119a-58f6-419b-a5d7-be03764bf6ca}, !- Space Name
  Surface,                                !- Outside Boundary Condition
  {559ea863-6134-4c91-a442-325a99fd3873}, !- Outside Boundary Condition Object
  NoSun,                                  !- Sun Exposure
  NoWind,                                 !- Wind Exposure
  ,                                       !- View Factor to Ground
  ,                                       !- Number of Vertices
  0, -6.096, 2.4384,                      !- X,Y,Z Vertex 1 {m}
  0, 0, 2.4384,                           !- X,Y,Z Vertex 2 {m}
  0, 0, 0,                                !- X,Y,Z Vertex 3 {m}
  0, -6.096, 0;                           !- X,Y,Z Vertex 4 {m}

OS:BuildingStory,
  {e0fa5adc-6c1f-4ded-99ed-cda430ed5134}, !- Handle
  Story 1,                                !- Name
  0,                                      !- Nominal Z Coordinate {m}
  2.4384,                                 !- Nominal Floor to Floor Height {m}
  ,                                       !- Default Construction Set Name
  ,                                       !- Default Schedule Set Name
  {bff71370-d0d5-43be-b924-d7ed264d7b51}, !- Group Rendering Name
  2.4384;                                 !- Nominal Floor to Ceiling Height {m}

OS:Rendering:Color,
  {bff71370-d0d5-43be-b924-d7ed264d7b51}, !- Handle
  Rendering Color 1,                      !- Name
  136,                                    !- Rendering Red Value
  204,                                    !- Rendering Green Value
  238;                                    !- Rendering Blue Value

OS:Space,
  {446ef867-1a0d-4743-95e3-e1bac22604b8}, !- Handle
  Space 1 - 7,                            !- Name
  ,                                       !- Space Type Name
  ,                                       !- Default Construction Set Name
  ,                                       !- Default Schedule Set Name
  ,                                       !- Direction of Relative North {deg}
  ,                                       !- X Origin {m}
  ,                                       !- Y Origin {m}
  ,                                       !- Z Origin {m}
  {e0fa5adc-6c1f-4ded-99ed-cda430ed5134}, !- Building Story Name
  ,                                       !- Thermal Zone Name
  ,                                       !- Part of Total Floor Area
  ,                                       !- Design Specification Outdoor Air Object Name
  ;                                       !- Building Unit Name

OS:Surface,
  {740d3e30-550c-4c1e-bebb-8b6fcd5581c1}, !- Handle
  Face 48,                                !- Name
  Wall,                                   !- Surface Type
  ,                                       !- Construction Name
  {446ef867-1a0d-4743-95e3-e1bac22604b8}, !- Space Name
  Surface,                                !- Outside Boundary Condition
  {adc179d4-f4ad-43aa-9f8c-95aa9e557ead}, !- Outside Boundary Condition Object
  NoSun,                                  !- Sun Exposure
  NoWind,                                 !- Wind Exposure
  ,                                       !- View Factor to Ground
  ,                                       !- Number of Vertices
  13.716, 0, 2.4384,                      !- X,Y,Z Vertex 1 {m}
  6.096, 0, 2.4384,                       !- X,Y,Z Vertex 2 {m}
  6.096, 0, 0,                            !- X,Y,Z Vertex 3 {m}
  13.716, 0, 0;                           !- X,Y,Z Vertex 4 {m}

OS:Surface,
  {cf7231c4-e027-426a-a334-a2648ec6b3ad}, !- Handle
  Face 44,                                !- Name
  Floor,                                  !- Surface Type
  ,                                       !- Construction Name
  {446ef867-1a0d-4743-95e3-e1bac22604b8}, !- Space Name
  Ground,                                 !- Outside Boundary Condition
  ,                                       !- Outside Boundary Condition Object
  NoSun,                                  !- Sun Exposure
  NoWind,                                 !- Wind Exposure
  ,                                       !- View Factor to Ground
  ,                                       !- Number of Vertices
  27.432, 6.096, 0,                       !- X,Y,Z Vertex 1 {m}
  27.432, 0, 0,                           !- X,Y,Z Vertex 2 {m}
  13.716, 0, 0,                           !- X,Y,Z Vertex 3 {m}
  6.096, 0, 0,                            !- X,Y,Z Vertex 4 {m}
  6.096, 6.096, 0;                        !- X,Y,Z Vertex 5 {m}

OS:Surface,
  {ed0bdfe9-8435-4d4b-a822-63416eac0599}, !- Handle
  Face 45,                                !- Name
  RoofCeiling,                            !- Surface Type
  ,                                       !- Construction Name
  {446ef867-1a0d-4743-95e3-e1bac22604b8}, !- Space Name
  Outdoors,                               !- Outside Boundary Condition
  ,                                       !- Outside Boundary Condition Object
  SunExposed,                             !- Sun Exposure
  WindExposed,                            !- Wind Exposure
  ,                                       !- View Factor to Ground
  ,                                       !- Number of Vertices
  6.096, 6.096, 2.4384,                   !- X,Y,Z Vertex 1 {m}
  6.096, 0, 2.4384,                       !- X,Y,Z Vertex 2 {m}
  13.716, 0, 2.4384,                      !- X,Y,Z Vertex 3 {m}
  27.432, 0, 2.4384,                      !- X,Y,Z Vertex 4 {m}
  27.432, 6.096, 2.4384;                  !- X,Y,Z Vertex 5 {m}

OS:Surface,
  {bc229107-280d-4c8c-9dab-8e630a0696d4}, !- Handle
  Face 46,                                !- Name
  Wall,                                   !- Surface Type
  ,                                       !- Construction Name
  {446ef867-1a0d-4743-95e3-e1bac22604b8}, !- Space Name
  Outdoors,                               !- Outside Boundary Condition
  ,                                       !- Outside Boundary Condition Object
  SunExposed,                             !- Sun Exposure
  WindExposed,                            !- Wind Exposure
  ,                                       !- View Factor to Ground
  ,                                       !- Number of Vertices
  27.432, 6.096, 2.4384,                  !- X,Y,Z Vertex 1 {m}
  27.432, 0, 2.4384,                      !- X,Y,Z Vertex 2 {m}
  27.432, 0, 0,                           !- X,Y,Z Vertex 3 {m}
  27.432, 6.096, 0;                       !- X,Y,Z Vertex 4 {m}

OS:Surface,
  {2ba65725-c7fa-4568-a218-f8f378e66d6c}, !- Handle
  Face 47,                                !- Name
  Wall,                                   !- Surface Type
  ,                                       !- Construction Name
  {446ef867-1a0d-4743-95e3-e1bac22604b8}, !- Space Name
  Surface,                                !- Outside Boundary Condition
  {bd12c4bc-6bf9-4069-9420-419edf9633bd}, !- Outside Boundary Condition Object
  NoSun,                                  !- Sun Exposure
  NoWind,                                 !- Wind Exposure
  ,                                       !- View Factor to Ground
  ,                                       !- Number of Vertices
  27.432, 0, 2.4384,                      !- X,Y,Z Vertex 1 {m}
  13.716, 0, 2.4384,                      !- X,Y,Z Vertex 2 {m}
  13.716, 0, 0,                           !- X,Y,Z Vertex 3 {m}
  27.432, 0, 0;                           !- X,Y,Z Vertex 4 {m}

OS:Surface,
  {6c16b69b-df65-43c7-888f-5ef22b1100f1}, !- Handle
  Face 49,                                !- Name
  Wall,                                   !- Surface Type
  ,                                       !- Construction Name
  {446ef867-1a0d-4743-95e3-e1bac22604b8}, !- Space Name
  Surface,                                !- Outside Boundary Condition
  {38ef7b30-cb15-4489-8b2d-33563c1eda0c}, !- Outside Boundary Condition Object
  NoSun,                                  !- Sun Exposure
  NoWind,                                 !- Wind Exposure
  ,                                       !- View Factor to Ground
  ,                                       !- Number of Vertices
  6.096, 0, 2.4384,                       !- X,Y,Z Vertex 1 {m}
  6.096, 6.096, 2.4384,                   !- X,Y,Z Vertex 2 {m}
  6.096, 6.096, 0,                        !- X,Y,Z Vertex 3 {m}
  6.096, 0, 0;                            !- X,Y,Z Vertex 4 {m}

OS:Surface,
  {dccc5368-2ceb-4903-b01e-1c286377cd8e}, !- Handle
  Face 50,                                !- Name
  Wall,                                   !- Surface Type
  ,                                       !- Construction Name
  {446ef867-1a0d-4743-95e3-e1bac22604b8}, !- Space Name
  Outdoors,                               !- Outside Boundary Condition
  ,                                       !- Outside Boundary Condition Object
  SunExposed,                             !- Sun Exposure
  WindExposed,                            !- Wind Exposure
  ,                                       !- View Factor to Ground
  ,                                       !- Number of Vertices
  6.096, 6.096, 2.4384,                   !- X,Y,Z Vertex 1 {m}
  27.432, 6.096, 2.4384,                  !- X,Y,Z Vertex 2 {m}
  27.432, 6.096, 0,                       !- X,Y,Z Vertex 3 {m}
  6.096, 6.096, 0;                        !- X,Y,Z Vertex 4 {m}

OS:Space,
  {5aa92cfc-09fd-467d-86f9-9b6200382cfe}, !- Handle
  Space 1 - 6,                            !- Name
  ,                                       !- Space Type Name
  ,                                       !- Default Construction Set Name
  ,                                       !- Default Schedule Set Name
  ,                                       !- Direction of Relative North {deg}
  ,                                       !- X Origin {m}
  ,                                       !- Y Origin {m}
  ,                                       !- Z Origin {m}
  {e0fa5adc-6c1f-4ded-99ed-cda430ed5134}, !- Building Story Name
  ,                                       !- Thermal Zone Name
  ,                                       !- Part of Total Floor Area
  ,                                       !- Design Specification Outdoor Air Object Name
  ;                                       !- Building Unit Name

OS:Surface,
  {7b9843ec-bf6a-4ad2-b882-9423ff332658}, !- Handle
  Face 38,                                !- Name
  Floor,                                  !- Surface Type
  ,                                       !- Construction Name
  {5aa92cfc-09fd-467d-86f9-9b6200382cfe}, !- Space Name
  Ground,                                 !- Outside Boundary Condition
  ,                                       !- Outside Boundary Condition Object
  NoSun,                                  !- Sun Exposure
  NoWind,                                 !- Wind Exposure
  ,                                       !- View Factor to Ground
  ,                                       !- Number of Vertices
  0, 0, 0,                                !- X,Y,Z Vertex 1 {m}
  0, -6.096, 0,                           !- X,Y,Z Vertex 2 {m}
  -12.192, -6.096, 0,                     !- X,Y,Z Vertex 3 {m}
  -12.192, 0, 0;                          !- X,Y,Z Vertex 4 {m}

OS:Surface,
  {0e62a616-f45d-4d33-a108-c59eda060869}, !- Handle
  Face 39,                                !- Name
  RoofCeiling,                            !- Surface Type
  ,                                       !- Construction Name
  {5aa92cfc-09fd-467d-86f9-9b6200382cfe}, !- Space Name
  Outdoors,                               !- Outside Boundary Condition
  ,                                       !- Outside Boundary Condition Object
  SunExposed,                             !- Sun Exposure
  WindExposed,                            !- Wind Exposure
  ,                                       !- View Factor to Ground
  ,                                       !- Number of Vertices
  -12.192, 0, 2.4384,                     !- X,Y,Z Vertex 1 {m}
  -12.192, -6.096, 2.4384,                !- X,Y,Z Vertex 2 {m}
  0, -6.096, 2.4384,                      !- X,Y,Z Vertex 3 {m}
  0, 0, 2.4384;                           !- X,Y,Z Vertex 4 {m}

OS:Surface,
  {174df223-91e0-4eb5-a75d-86b9bd4b1343}, !- Handle
  Face 41,                                !- Name
  Wall,                                   !- Surface Type
  ,                                       !- Construction Name
  {5aa92cfc-09fd-467d-86f9-9b6200382cfe}, !- Space Name
  Surface,                                !- Outside Boundary Condition
  {e223f73e-b162-4f7a-bfcf-6468584a0461}, !- Outside Boundary Condition Object
  NoSun,                                  !- Sun Exposure
  NoWind,                                 !- Wind Exposure
  ,                                       !- View Factor to Ground
  ,                                       !- Number of Vertices
  0, -6.096, 2.4384,                      !- X,Y,Z Vertex 1 {m}
  -12.192, -6.096, 2.4384,                !- X,Y,Z Vertex 2 {m}
  -12.192, -6.096, 0,                     !- X,Y,Z Vertex 3 {m}
  0, -6.096, 0;                           !- X,Y,Z Vertex 4 {m}

OS:Surface,
  {559ea863-6134-4c91-a442-325a99fd3873}, !- Handle
  Face 40,                                !- Name
  Wall,                                   !- Surface Type
  ,                                       !- Construction Name
  {5aa92cfc-09fd-467d-86f9-9b6200382cfe}, !- Space Name
  Surface,                                !- Outside Boundary Condition
  {5b257050-38f7-4704-87a9-7b722336a668}, !- Outside Boundary Condition Object
  NoSun,                                  !- Sun Exposure
  NoWind,                                 !- Wind Exposure
  ,                                       !- View Factor to Ground
  ,                                       !- Number of Vertices
  0, 0, 2.4384,                           !- X,Y,Z Vertex 1 {m}
  0, -6.096, 2.4384,                      !- X,Y,Z Vertex 2 {m}
  0, -6.096, 0,                           !- X,Y,Z Vertex 3 {m}
  0, 0, 0;                                !- X,Y,Z Vertex 4 {m}

OS:Surface,
  {18ed4b19-e9aa-4329-82bb-d8612d7afc93}, !- Handle
  Face 42,                                !- Name
  Wall,                                   !- Surface Type
  ,                                       !- Construction Name
  {5aa92cfc-09fd-467d-86f9-9b6200382cfe}, !- Space Name
  Surface,                                !- Outside Boundary Condition
  {07d2c077-4b59-4393-a71e-86d0f172a71d}, !- Outside Boundary Condition Object
  NoSun,                                  !- Sun Exposure
  NoWind,                                 !- Wind Exposure
  ,                                       !- View Factor to Ground
  ,                                       !- Number of Vertices
  -12.192, -6.096, 2.4384,                !- X,Y,Z Vertex 1 {m}
  -12.192, 0, 2.4384,                     !- X,Y,Z Vertex 2 {m}
  -12.192, 0, 0,                          !- X,Y,Z Vertex 3 {m}
  -12.192, -6.096, 0;                     !- X,Y,Z Vertex 4 {m}

OS:Surface,
  {7cce55c6-e147-4b12-af1e-98b9ffc7ff51}, !- Handle
  Face 43,                                !- Name
  Wall,                                   !- Surface Type
  ,                                       !- Construction Name
  {5aa92cfc-09fd-467d-86f9-9b6200382cfe}, !- Space Name
  Surface,                                !- Outside Boundary Condition
  {6fae71b9-4830-4665-b71d-0277c51eedc4}, !- Outside Boundary Condition Object
  NoSun,                                  !- Sun Exposure
  NoWind,                                 !- Wind Exposure
  ,                                       !- View Factor to Ground
  ,                                       !- Number of Vertices
  -12.192, 0, 2.4384,                     !- X,Y,Z Vertex 1 {m}
  0, 0, 2.4384,                           !- X,Y,Z Vertex 2 {m}
  0, 0, 0,                                !- X,Y,Z Vertex 3 {m}
  -12.192, 0, 0;                          !- X,Y,Z Vertex 4 {m}

OS:Space,
  {a893bf58-5b14-4c18-9f8d-da713d3d9b3b}, !- Handle
  Space 1 - 4,                            !- Name
  ,                                       !- Space Type Name
  ,                                       !- Default Construction Set Name
  ,                                       !- Default Schedule Set Name
  ,                                       !- Direction of Relative North {deg}
  ,                                       !- X Origin {m}
  ,                                       !- Y Origin {m}
  ,                                       !- Z Origin {m}
  {e0fa5adc-6c1f-4ded-99ed-cda430ed5134}, !- Building Story Name
  ,                                       !- Thermal Zone Name
  ,                                       !- Part of Total Floor Area
  ,                                       !- Design Specification Outdoor Air Object Name
  ;                                       !- Building Unit Name

OS:Surface,
  {802b0af6-f560-4896-a26e-0b4e850fc2bc}, !- Handle
  Face 24,                                !- Name
  RoofCeiling,                            !- Surface Type
  ,                                       !- Construction Name
  {a893bf58-5b14-4c18-9f8d-da713d3d9b3b}, !- Space Name
  Outdoors,                               !- Outside Boundary Condition
  ,                                       !- Outside Boundary Condition Object
  SunExposed,                             !- Sun Exposure
  WindExposed,                            !- Wind Exposure